Program Version,EnergyPlus, Version 9.0.1-bb7ca4f0da, YMD=2022.04.26 19:50
! <Version>, Version ID
 Version, 9.0
! <Timesteps per Hour>, #TimeSteps, Minutes per TimeStep {minutes}
 Timesteps per Hour,  6, 10
! <System Convergence Limits>, Minimum System TimeStep {minutes}, Max HVAC Iterations, Minimum Plant Iterations, Maximum Plant Iterations
 System Convergence Limits, 1, 20, 2, 8
! <Simulation Control>, Do Zone Sizing, Do System Sizing, Do Plant Sizing, Do Design Days, Do Weather Simulation, Do HVAC Sizing Simulation
 Simulation Control, Yes, Yes, Yes, No, Yes, No
! <Output Reporting Tolerances>, Tolerance for Time Heating Setpoint Not Met, Tolerance for Zone Cooling Setpoint Not Met Time
 Output Reporting Tolerances, 0.556, 0.556, 
! <Site:GroundTemperature:BuildingSurface>,Jan{C},Feb{C},Mar{C},Apr{C},May{C},Jun{C},Jul{C},Aug{C},Sep{C},Oct{C},Nov{C},Dec{C}
 Site:GroundTemperature:BuildingSurface,  18.00,  18.00,  18.00,  18.00,  18.00,  18.00,  18.00,  18.00,  18.00,  18.00,  18.00,  18.00
! <Site:GroundTemperature:FCfactorMethod>,Jan{C},Feb{C},Mar{C},Apr{C},May{C},Jun{C},Jul{C},Aug{C},Sep{C},Oct{C},Nov{C},Dec{C}
 Site:GroundTemperature:FCfactorMethod,  18.80,  14.30,  13.60,  13.20,  13.30,  12.60,  15.30,  15.60,  17.70,  19.40,  19.70,  18.50
! <Site:GroundTemperature:Shallow>,Jan{C},Feb{C},Mar{C},Apr{C},May{C},Jun{C},Jul{C},Aug{C},Sep{C},Oct{C},Nov{C},Dec{C}
 Site:GroundTemperature:Shallow,  13.00,  13.00,  13.00,  13.00,  13.00,  13.00,  13.00,  13.00,  13.00,  13.00,  13.00,  13.00
! <Site:GroundTemperature:Deep>,Jan{C},Feb{C},Mar{C},Apr{C},May{C},Jun{C},Jul{C},Aug{C},Sep{C},Oct{C},Nov{C},Dec{C}
 Site:GroundTemperature:Deep,  16.00,  16.00,  16.00,  16.00,  16.00,  16.00,  16.00,  16.00,  16.00,  16.00,  16.00,  16.00
! <Site:GroundReflectance>,Jan{dimensionless},Feb{dimensionless},Mar{dimensionless},Apr{dimensionless},May{dimensionless},Jun{dimensionless},Jul{dimensionless},Aug{dimensionless},Sep{dimensionless},Oct{dimensionless},Nov{dimensionless},Dec{dimensionless}
 Site:GroundReflectance,  0.20,  0.20,  0.20,  0.20,  0.20,  0.20,  0.20,  0.20,  0.20,  0.20,  0.20,  0.20
! <Site:GroundReflectance:SnowModifier>, Normal, Daylighting {dimensionless}
 Site:GroundReflectance:SnowModifier,   1.000,   1.000
! <Site:GroundReflectance:Snow>,Jan{dimensionless},Feb{dimensionless},Mar{dimensionless},Apr{dimensionless},May{dimensionless},Jun{dimensionless},Jul{dimensionless},Aug{dimensionless},Sep{dimensionless},Oct{dimensionless},Nov{dimensionless},Dec{dimensionless}
 Site:GroundReflectance:Snow,  0.20,  0.20,  0.20,  0.20,  0.20,  0.20,  0.20,  0.20,  0.20,  0.20,  0.20,  0.20
! <Site:GroundReflectance:Snow:Daylighting>,Jan{dimensionless},Feb{dimensionless},Mar{dimensionless},Apr{dimensionless},May{dimensionless},Jun{dimensionless},Jul{dimensionless},Aug{dimensionless},Sep{dimensionless},Oct{dimensionless},Nov{dimensionless},Dec{dimensionless}
 Site:GroundReflectance:Snow:Daylighting,  0.20,  0.20,  0.20,  0.20,  0.20,  0.20,  0.20,  0.20,  0.20,  0.20,  0.20,  0.20
! <Environment:Weather Station>,Wind Sensor Height Above Ground {m},Wind Speed Profile Exponent {},Wind Speed Profile Boundary Layer Thickness {m},Air Temperature Sensor Height Above Ground {m},Wind Speed Modifier Coefficient-Internal,Temperature Modifier Coefficient-Internal
Environment:Weather Station,10.000,0.140,270.000,1.500,1.586,9.750E-003
! <Site:Location>, Location Name, Latitude {N+/S- Deg}, Longitude {E+/W- Deg},  Time Zone Number {GMT+/-}, Elevation {m},  Standard Pressure at Elevation {Pa}, Standard RhoAir at Elevation
Site:Location,San Diego-Brown Field Muni AP CA USA TMY3 WMO#=722904,32.58,-116.98,-8.00,159.00,99429,1.1818
! <Site Water Mains Temperature Information>,Calculation Method{},Water Mains Temperature Schedule Name{},Annual Average Outdoor Air Temperature{C},Maximum Difference In Monthly Average Outdoor Air Temperatures{deltaC},Fixed Default Water Mains Temperature{C}
Site Water Mains Temperature Information,Correlation,NA,16.00,7.10,NA
! <Building Information>, Building Name,North Axis {deg},Terrain,  Loads Convergence Tolerance Value,Temperature Convergence Tolerance Value,  Solar Distribution,Maximum Number of Warmup Days,Minimum Number of Warmup Days
 Building Information,OfficeMedium,0.000,City,4.00000E-002,0.20000,FullInteriorAndExterior,25,6
! <Inside Convection Algorithm>, Algorithm {Simple | TARP | CeilingDiffuser | AdaptiveConvectionAlgorithm}
Inside Convection Algorithm,TARP
! <Outside Convection Algorithm>, Algorithm {SimpleCombined | TARP | MoWitt | DOE-2 | AdaptiveConvectionAlgorithm}
Outside Convection Algorithm,TARP
! <Sky Radiance Distribution>, Value {Anisotropic}
Sky Radiance Distribution,Anisotropic
! <Zone Air Solution Algorithm>, Value {ThirdOrderBackwardDifference | AnalyticalSolution | EulerMethod}
 Zone Air Solution Algorithm, ThirdOrderBackwardDifference
! <Zone Air Carbon Dioxide Balance Simulation>, Simulation {Yes/No}, Carbon Dioxide Concentration
 Zone Air Carbon Dioxide Balance Simulation, No,N/A
! <Zone Air Generic Contaminant Balance Simulation>, Simulation {Yes/No}, Generic Contaminant Concentration
 Zone Air Generic Contaminant Balance Simulation, No,N/A
! <Zone Air Mass Flow Balance Simulation>, Enforce Mass Balance, Adjust Zone Mixing, Adjust Zone Infiltration {AddInfiltration | AdjustInfiltration | None}, Infiltration Zones {MixingSourceZonesOnly | AllZones}
 Zone Air Mass Flow Balance Simulation, No,N/A,N/A,N/A
! <HVACSystemRootFindingAlgorithm>, Value {RegulaFalsi | Bisection | BisectionThenRegulaFalsi | RegulaFalsiThenBisection}
 HVACSystemRootFindingAlgorithm, RegulaFalsi
! <Environment:Site Atmospheric Variation>,Wind Speed Profile Exponent {},Wind Speed Profile Boundary Layer Thickness {m},Air Temperature Gradient Coefficient {K/m}
Environment:Site Atmospheric Variation,0.330,460.000,6.500000E-003
! <Surface Geometry>,Starting Corner,Vertex Input Direction,Coordinate System,Daylight Reference Point Coordinate System,Rectangular (Simple) Surface Coordinate System
 Surface Geometry,UpperLeftCorner,Counterclockwise,RelativeCoordinateSystem,RelativeCoordinateSystem,RelativeToZoneOrigin
! <Surface Heat Transfer Algorithm>, Value {CTF - ConductionTransferFunction | EMPD - MoisturePenetrationDepthConductionTransferFunction | CondFD - ConductionFiniteDifference | HAMT - CombinedHeatAndMoistureFiniteElement} - Description,Inside Surface Max Temperature Limit{C}, Surface Convection Coefficient Lower Limit {W/m2-K}, Surface Convection Coefficient Upper Limit {W/m2-K}
Surface Heat Transfer Algorithm, CTF - ConductionTransferFunction,200,0.10,1000.0
! <Shading Summary>, Number of Fixed Detached Shades, Number of Building Detached Shades, Number of Attached Shades
 Shading Summary,0,0,0
! <Zone Summary>, Number of Zones, Number of Zone Surfaces, Number of SubSurfaces
 Zone Summary,18,167,24
! <Zone Information>,Zone Name,North Axis {deg},Origin X-Coordinate {m},Origin Y-Coordinate {m},Origin Z-Coordinate {m},Centroid X-Coordinate {m},Centroid Y-Coordinate {m},Centroid Z-Coordinate {m},Type,Zone Multiplier,Zone List Multiplier,Minimum X {m},Maximum X {m},Minimum Y {m},Maximum Y {m},Minimum Z {m},Maximum Z {m},Ceiling Height {m},Volume {m3},Zone Inside Convection Algorithm {Simple-Detailed-CeilingDiffuser-TrombeWall},Zone Outside Convection Algorithm {Simple-Detailed-Tarp-MoWitt-DOE-2-BLAST}, Floor Area {m2},Exterior Gross Wall Area {m2},Exterior Net Wall Area {m2},Exterior Window Area {m2}, Number of Surfaces, Number of SubSurfaces, Number of Shading SubSurfaces,  Part of Total Building Area
 Zone Information, CORE_BOTTOM,0.0,0.00,0.00,0.00,24.96,16.64,1.37,1,1,1,4.57,45.34,4.57,28.70,0.00,2.74,2.74,2698.04,TARP,TARP,983.54,0.00,0.00,0.00,6,0,0,Yes
 Zone Information, TOPFLOOR_PLENUM,0.0,0.00,0.00,0.00,24.96,16.64,11.28,1,1,1,0.00,49.91,0.00,33.27,10.67,11.89,1.22,2024.76,TARP,TARP,1660.73,202.84,202.84,0.00,10,0,0,No
 Zone Information, MIDFLOOR_PLENUM,0.0,0.00,0.00,0.00,24.96,16.64,7.32,1,1,1,0.00,49.91,0.00,33.27,6.71,7.92,1.22,2024.76,TARP,TARP,1660.73,202.84,202.84,0.00,14,0,0,No
 Zone Information, FIRSTFLOOR_PLENUM,0.0,0.00,0.00,0.00,24.96,16.64,3.35,1,1,1,0.00,49.91,0.00,33.27,2.74,3.96,1.22,2024.76,TARP,TARP,1660.73,202.84,202.84,0.00,14,0,0,No
 Zone Information, CORE_MID,0.0,0.00,0.00,0.00,24.96,16.64,5.33,1,1,1,4.57,45.34,4.57,28.70,3.96,6.71,2.74,2698.04,TARP,TARP,983.54,0.00,0.00,0.00,6,0,0,Yes
 Zone Information, CORE_TOP,0.0,0.00,0.00,0.00,24.96,16.64,9.30,1,1,1,4.57,45.34,4.57,28.70,7.92,10.67,2.74,2698.04,TARP,TARP,983.54,0.00,0.00,0.00,6,0,0,Yes
 Zone Information, PERIMETER_TOP_ZN_3,0.0,0.00,0.00,0.00,24.96,31.11,9.30,1,1,1,0.00,49.91,28.70,33.27,7.92,10.67,2.74,568.77,TARP,TARP,207.34,136.92,71.65,65.26,6,1,0,Yes
 Zone Information, PERIMETER_TOP_ZN_2,0.0,0.00,0.00,0.00,47.82,16.64,9.30,1,1,1,45.34,49.91,0.00,33.27,7.92,10.67,2.74,360.08,TARP,TARP,131.26,91.28,47.77,43.51,6,1,0,Yes
 Zone Information, PERIMETER_TOP_ZN_1,0.0,0.00,0.00,0.00,24.96,2.16,9.30,1,1,1,0.00,49.91,0.00,4.57,7.92,10.67,2.74,568.77,TARP,TARP,207.34,136.92,71.65,65.26,6,1,0,Yes
 Zone Information, PERIMETER_TOP_ZN_4,0.0,0.00,0.00,0.00,2.09,16.64,9.30,1,1,1,0.00,4.57,0.00,33.27,7.92,10.67,2.74,360.05,TARP,TARP,131.25,91.28,47.77,43.51,6,1,0,Yes
 Zone Information, PERIMETER_BOT_ZN_3,0.0,0.00,0.00,0.00,24.96,31.11,1.37,1,1,1,0.00,49.91,28.70,33.27,0.00,2.74,2.74,568.77,TARP,TARP,207.34,136.92,67.75,65.26,6,5,0,Yes
 Zone Information, PERIMETER_BOT_ZN_2,0.0,0.00,0.00,0.00,47.82,16.64,1.37,1,1,1,45.34,49.91,0.00,33.27,0.00,2.74,2.74,360.08,TARP,TARP,131.26,91.28,45.82,43.51,6,3,0,Yes
 Zone Information, PERIMETER_BOT_ZN_1,0.0,0.00,0.00,0.00,24.96,2.16,1.37,1,1,1,0.00,49.91,0.00,4.57,0.00,2.74,2.74,568.77,TARP,TARP,207.34,136.92,67.75,65.26,6,5,0,Yes
 Zone Information, PERIMETER_BOT_ZN_4,0.0,0.00,0.00,0.00,2.09,16.64,1.37,1,1,1,0.00,4.57,0.00,33.27,0.00,2.74,2.74,360.05,TARP,TARP,131.25,91.28,45.82,43.51,6,3,0,Yes
 Zone Information, PERIMETER_MID_ZN_3,0.0,0.00,0.00,0.00,24.96,31.11,5.33,1,1,1,0.00,49.91,28.70,33.27,3.96,6.71,2.74,568.77,TARP,TARP,207.34,136.92,71.65,65.26,6,1,0,Yes
 Zone Information, PERIMETER_MID_ZN_2,0.0,0.00,0.00,0.00,47.82,16.64,5.33,1,1,1,45.34,49.91,0.00,33.27,3.96,6.71,2.74,360.08,TARP,TARP,131.26,91.28,47.77,43.51,6,1,0,Yes
 Zone Information, PERIMETER_MID_ZN_1,0.0,0.00,0.00,0.00,24.96,2.16,5.33,1,1,1,0.00,49.91,0.00,4.57,3.96,6.71,2.74,568.77,TARP,TARP,207.34,136.92,71.65,65.26,6,1,0,Yes
 Zone Information, PERIMETER_MID_ZN_4,0.0,0.00,0.00,0.00,2.09,16.64,5.33,1,1,1,0.00,4.57,0.00,33.27,3.96,6.71,2.74,360.05,TARP,TARP,131.25,91.28,47.77,43.51,6,1,0,Yes
! <Zone Internal Gains Nominal>,Zone Name, Floor Area {m2},# Occupants,Area per Occupant {m2/person},Occupant per Area {person/m2},Interior Lighting {W/m2},Electric Load {W/m2},Gas Load {W/m2},Other Load {W/m2},Hot Water Eq {W/m2},Steam Equipment {W/m2},Sum Loads per Area {W/m2},Outdoor Controlled Baseboard Heat
 Zone Internal Gains Nominal, CORE_BOTTOM,983.54,52.9,18.579,5.382E-002,4.000,40.844,0.000,0.000,0.000,0.000,44.844,No
 Zone Internal Gains Nominal, TOPFLOOR_PLENUM,1660.73,0.0,N/A,0.000,0.000,0.000,0.000,0.000,0.000,0.000,0.000,No
 Zone Internal Gains Nominal, MIDFLOOR_PLENUM,1660.73,0.0,N/A,0.000,0.000,0.000,0.000,0.000,0.000,0.000,0.000,No
 Zone Internal Gains Nominal, FIRSTFLOOR_PLENUM,1660.73,0.0,N/A,0.000,0.000,0.000,0.000,0.000,0.000,0.000,0.000,No
 Zone Internal Gains Nominal, CORE_MID,983.54,52.9,18.579,5.382E-002,4.000,8.070,0.000,0.000,0.000,0.000,12.070,No
 Zone Internal Gains Nominal, CORE_TOP,983.54,52.9,18.579,5.382E-002,4.000,8.070,0.000,0.000,0.000,0.000,12.070,No
 Zone Internal Gains Nominal, PERIMETER_TOP_ZN_3,207.34,11.2,18.579,5.382E-002,4.000,8.070,0.000,0.000,0.000,0.000,12.070,No
 Zone Internal Gains Nominal, PERIMETER_TOP_ZN_2,131.26,7.1,18.579,5.382E-002,4.000,8.069,0.000,0.000,0.000,0.000,12.069,No
 Zone Internal Gains Nominal, PERIMETER_TOP_ZN_1,207.34,11.2,18.579,5.382E-002,4.000,8.070,0.000,0.000,0.000,0.000,12.070,No
 Zone Internal Gains Nominal, PERIMETER_TOP_ZN_4,131.25,7.1,18.579,5.382E-002,4.000,8.070,0.000,0.000,0.000,0.000,12.070,No
 Zone Internal Gains Nominal, PERIMETER_BOT_ZN_3,207.34,11.2,18.579,5.382E-002,4.000,8.070,0.000,0.000,0.000,0.000,12.070,No
 Zone Internal Gains Nominal, PERIMETER_BOT_ZN_2,131.26,7.1,18.579,5.382E-002,4.000,8.069,0.000,0.000,0.000,0.000,12.069,No
 Zone Internal Gains Nominal, PERIMETER_BOT_ZN_1,207.34,11.2,18.579,5.382E-002,4.000,8.070,0.000,0.000,0.000,0.000,12.070,No
 Zone Internal Gains Nominal, PERIMETER_BOT_ZN_4,131.25,7.1,18.579,5.382E-002,4.000,8.070,0.000,0.000,0.000,0.000,12.070,No
 Zone Internal Gains Nominal, PERIMETER_MID_ZN_3,207.34,11.2,18.579,5.382E-002,4.000,8.070,0.000,0.000,0.000,0.000,12.070,No
 Zone Internal Gains Nominal, PERIMETER_MID_ZN_2,131.26,7.1,18.579,5.382E-002,4.000,8.069,0.000,0.000,0.000,0.000,12.069,No
 Zone Internal Gains Nominal, PERIMETER_MID_ZN_1,207.34,11.2,18.579,5.382E-002,4.000,8.070,0.000,0.000,0.000,0.000,12.070,No
 Zone Internal Gains Nominal, PERIMETER_MID_ZN_4,131.25,7.1,18.579,5.382E-002,4.000,8.070,0.000,0.000,0.000,0.000,12.070,No
! <People Internal Gains Nominal>,Name,Schedule Name,Zone Name,Zone Floor Area {m2},# Zone Occupants,Number of People {},People/Floor Area {person/m2},Floor Area per person {m2/person},Fraction Radiant,Fraction Convected,Sensible Fraction Calculation,Activity level,ASHRAE 55 Warnings,Carbon Dioxide Generation Rate,Nominal Minimum Number of People,Nominal Maximum Number of People,MRT Calculation Type,Work Efficiency, Clothing Insulation Calculation Method,Clothing Insulation Calculation Method Schedule,Clothing,Air Velocity,Fanger Calculation,Pierce Calculation,KSU Calculation
 People Internal Gains Nominal, CORE_BOTTOM,BLDG_OCC_SCH_WO_SB,CORE_BOTTOM,983.54,52.9,52.9,5.382E-002,18.579,0.300,0.700,AutoCalculate,ACTIVITY_SCH,No,3.8200E-008,0,53,Zone Averaged,WORK_EFF_SCH,Clothing Insulation Schedule,N/A,CLOTHING_SCH,AIR_VELO_SCH,Yes,No,No
 People Internal Gains Nominal, CORE_MID,BLDG_OCC_SCH_WO_SB,CORE_MID,983.54,52.9,52.9,5.382E-002,18.579,0.300,0.700,AutoCalculate,ACTIVITY_SCH,No,3.8200E-008,0,53,Zone Averaged,WORK_EFF_SCH,Clothing Insulation Schedule,N/A,CLOTHING_SCH,AIR_VELO_SCH,Yes,No,No
 People Internal Gains Nominal, CORE_TOP,BLDG_OCC_SCH_WO_SB,CORE_TOP,983.54,52.9,52.9,5.382E-002,18.579,0.300,0.700,AutoCalculate,ACTIVITY_SCH,No,3.8200E-008,0,53,Zone Averaged,WORK_EFF_SCH,Clothing Insulation Schedule,N/A,CLOTHING_SCH,AIR_VELO_SCH,Yes,No,No
 People Internal Gains Nominal, PERIMETER_TOP_ZN_3,BLDG_OCC_SCH_WO_SB,PERIMETER_TOP_ZN_3,207.34,11.2,11.2,5.382E-002,18.579,0.300,0.700,AutoCalculate,ACTIVITY_SCH,No,3.8200E-008,0,11,Zone Averaged,WORK_EFF_SCH,Clothing Insulation Schedule,N/A,CLOTHING_SCH,AIR_VELO_SCH,Yes,No,No
 People Internal Gains Nominal, PERIMETER_TOP_ZN_2,BLDG_OCC_SCH_WO_SB,PERIMETER_TOP_ZN_2,131.26,7.1,7.1,5.382E-002,18.579,0.300,0.700,AutoCalculate,ACTIVITY_SCH,No,3.8200E-008,0,7,Zone Averaged,WORK_EFF_SCH,Clothing Insulation Schedule,N/A,CLOTHING_SCH,AIR_VELO_SCH,Yes,No,No
 People Internal Gains Nominal, PERIMETER_TOP_ZN_1,BLDG_OCC_SCH_WO_SB,PERIMETER_TOP_ZN_1,207.34,11.2,11.2,5.382E-002,18.579,0.300,0.700,AutoCalculate,ACTIVITY_SCH,No,3.8200E-008,0,11,Zone Averaged,WORK_EFF_SCH,Clothing Insulation Schedule,N/A,CLOTHING_SCH,AIR_VELO_SCH,Yes,No,No
 People Internal Gains Nominal, PERIMETER_TOP_ZN_4,BLDG_OCC_SCH_WO_SB,PERIMETER_TOP_ZN_4,131.25,7.1,7.1,5.382E-002,18.579,0.300,0.700,AutoCalculate,ACTIVITY_SCH,No,3.8200E-008,0,7,Zone Averaged,WORK_EFF_SCH,Clothing Insulation Schedule,N/A,CLOTHING_SCH,AIR_VELO_SCH,Yes,No,No
 People Internal Gains Nominal, PERIMETER_BOT_ZN_3,BLDG_OCC_SCH_WO_SB,PERIMETER_BOT_ZN_3,207.34,11.2,11.2,5.382E-002,18.579,0.300,0.700,AutoCalculate,ACTIVITY_SCH,No,3.8200E-008,0,11,Zone Averaged,WORK_EFF_SCH,Clothing Insulation Schedule,N/A,CLOTHING_SCH,AIR_VELO_SCH,Yes,No,No
 People Internal Gains Nominal, PERIMETER_BOT_ZN_2,BLDG_OCC_SCH_WO_SB,PERIMETER_BOT_ZN_2,131.26,7.1,7.1,5.382E-002,18.579,0.300,0.700,AutoCalculate,ACTIVITY_SCH,No,3.8200E-008,0,7,Zone Averaged,WORK_EFF_SCH,Clothing Insulation Schedule,N/A,CLOTHING_SCH,AIR_VELO_SCH,Yes,No,No
 People Internal Gains Nominal, PERIMETER_BOT_ZN_1,BLDG_OCC_SCH_WO_SB,PERIMETER_BOT_ZN_1,207.34,11.2,11.2,5.382E-002,18.579,0.300,0.700,AutoCalculate,ACTIVITY_SCH,No,3.8200E-008,0,11,Zone Averaged,WORK_EFF_SCH,Clothing Insulation Schedule,N/A,CLOTHING_SCH,AIR_VELO_SCH,Yes,No,No
 People Internal Gains Nominal, PERIMETER_BOT_ZN_4,BLDG_OCC_SCH_WO_SB,PERIMETER_BOT_ZN_4,131.25,7.1,7.1,5.382E-002,18.579,0.300,0.700,AutoCalculate,ACTIVITY_SCH,No,3.8200E-008,0,7,Zone Averaged,WORK_EFF_SCH,Clothing Insulation Schedule,N/A,CLOTHING_SCH,AIR_VELO_SCH,Yes,No,No
 People Internal Gains Nominal, PERIMETER_MID_ZN_3,BLDG_OCC_SCH_WO_SB,PERIMETER_MID_ZN_3,207.34,11.2,11.2,5.382E-002,18.579,0.300,0.700,AutoCalculate,ACTIVITY_SCH,No,3.8200E-008,0,11,Zone Averaged,WORK_EFF_SCH,Clothing Insulation Schedule,N/A,CLOTHING_SCH,AIR_VELO_SCH,Yes,No,No
 People Internal Gains Nominal, PERIMETER_MID_ZN_2,BLDG_OCC_SCH_W_SB,PERIMETER_MID_ZN_2,131.26,7.1,7.1,5.382E-002,18.579,0.300,0.700,AutoCalculate,ACTIVITY_SCH,No,3.8200E-008,0,7,Zone Averaged,WORK_EFF_SCH,Clothing Insulation Schedule,N/A,CLOTHING_SCH,AIR_VELO_SCH,Yes,No,No
 People Internal Gains Nominal, PERIMETER_MID_ZN_1,BLDG_OCC_SCH_WO_SB,PERIMETER_MID_ZN_1,207.34,11.2,11.2,5.382E-002,18.579,0.300,0.700,AutoCalculate,ACTIVITY_SCH,No,3.8200E-008,0,11,Zone Averaged,WORK_EFF_SCH,Clothing Insulation Schedule,N/A,CLOTHING_SCH,AIR_VELO_SCH,Yes,No,No
 People Internal Gains Nominal, PERIMETER_MID_ZN_4,BLDG_OCC_SCH_WO_SB,PERIMETER_MID_ZN_4,131.25,7.1,7.1,5.382E-002,18.579,0.300,0.700,AutoCalculate,ACTIVITY_SCH,No,3.8200E-008,0,7,Zone Averaged,WORK_EFF_SCH,Clothing Insulation Schedule,N/A,CLOTHING_SCH,AIR_VELO_SCH,Yes,No,No
! <Lights Internal Gains Nominal>,Name,Schedule Name,Zone Name,Zone Floor Area {m2},# Zone Occupants,Lighting Level {W},Lights/Floor Area {W/m2},Lights per person {W/person},Fraction Return Air,Fraction Radiant,Fraction Short Wave,Fraction Convected,Fraction Replaceable,End-Use Category,Nominal Minimum Lighting Level {W},Nominal Maximum Lighting Level {W}
 Lights Internal Gains Nominal, CORE_BOTTOM_LIGHTS,BLDG_LIGHT_SCH,CORE_BOTTOM,983.54,52.9,3934.146,4.000,74.315,0.000,0.700,0.200,0.100,1.000,LightsWired,0.000,3934.146
 Lights Internal Gains Nominal, CORE_MID_LIGHTS,BLDG_LIGHT_SCH,CORE_MID,983.54,52.9,3934.146,4.000,74.315,0.000,0.700,0.200,0.100,1.000,LightsWired,0.000,3934.146
 Lights Internal Gains Nominal, CORE_TOP_LIGHTS,BLDG_LIGHT_SCH,CORE_TOP,983.54,52.9,3934.146,4.000,74.315,0.000,0.700,0.200,0.100,1.000,LightsWired,0.000,3934.146
 Lights Internal Gains Nominal, PERIMETER_TOP_ZN_3_LIGHTS,BLDG_LIGHT_SCH,PERIMETER_TOP_ZN_3,207.34,11.2,829.353,4.000,74.315,0.000,0.700,0.200,0.100,1.000,LightsWired,0.000,829.353
 Lights Internal Gains Nominal, PERIMETER_TOP_ZN_2_LIGHTS,BLDG_LIGHT_SCH,PERIMETER_TOP_ZN_2,131.26,7.1,525.049,4.000,74.315,0.000,0.700,0.200,0.100,1.000,LightsWired,0.000,525.049
 Lights Internal Gains Nominal, PERIMETER_TOP_ZN_1_LIGHTS,BLDG_LIGHT_SCH,PERIMETER_TOP_ZN_1,207.34,11.2,829.353,4.000,74.315,0.000,0.700,0.200,0.100,1.000,LightsWired,0.000,829.353
 Lights Internal Gains Nominal, PERIMETER_TOP_ZN_4_LIGHTS,BLDG_LIGHT_SCH,PERIMETER_TOP_ZN_4,131.25,7.1,525.014,4.000,74.315,0.000,0.700,0.200,0.100,1.000,LightsWired,0.000,525.014
 Lights Internal Gains Nominal, PERIMETER_BOT_ZN_3_LIGHTS,BLDG_LIGHT_SCH,PERIMETER_BOT_ZN_3,207.34,11.2,829.353,4.000,74.315,0.000,0.700,0.200,0.100,1.000,LightsWired,0.000,829.353
 Lights Internal Gains Nominal, PERIMETER_BOT_ZN_2_LIGHTS,BLDG_LIGHT_SCH,PERIMETER_BOT_ZN_2,131.26,7.1,525.049,4.000,74.315,0.000,0.700,0.200,0.100,1.000,LightsWired,0.000,525.049
 Lights Internal Gains Nominal, PERIMETER_BOT_ZN_1_LIGHTS,BLDG_LIGHT_SCH,PERIMETER_BOT_ZN_1,207.34,11.2,829.353,4.000,74.315,0.000,0.700,0.200,0.100,1.000,LightsWired,0.000,829.353
 Lights Internal Gains Nominal, PERIMETER_BOT_ZN_4_LIGHTS,BLDG_LIGHT_SCH,PERIMETER_BOT_ZN_4,131.25,7.1,525.014,4.000,74.315,0.000,0.700,0.200,0.100,1.000,LightsWired,0.000,525.014
 Lights Internal Gains Nominal, PERIMETER_MID_ZN_3_LIGHTS,BLDG_LIGHT_SCH,PERIMETER_MID_ZN_3,207.34,11.2,829.353,4.000,74.315,0.000,0.700,0.200,0.100,1.000,LightsWired,0.000,829.353
 Lights Internal Gains Nominal, PERIMETER_MID_ZN_2_LIGHTS,BLDG_LIGHT_SCH,PERIMETER_MID_ZN_2,131.26,7.1,525.049,4.000,74.315,0.000,0.700,0.200,0.100,1.000,LightsWired,0.000,525.049
 Lights Internal Gains Nominal, PERIMETER_MID_ZN_1_LIGHTS,BLDG_LIGHT_SCH,PERIMETER_MID_ZN_1,207.34,11.2,829.353,4.000,74.315,0.000,0.700,0.200,0.100,1.000,LightsWired,0.000,829.353
 Lights Internal Gains Nominal, PERIMETER_MID_ZN_4_LIGHTS,BLDG_LIGHT_SCH,PERIMETER_MID_ZN_4,131.25,7.1,525.014,4.000,74.315,0.000,0.700,0.200,0.100,1.000,LightsWired,0.000,525.014
! <ElectricEquipment Internal Gains Nominal>,Name,Schedule Name,Zone Name,Zone Floor Area {m2},# Zone Occupants,Equipment Level {W},Equipment/Floor Area {W/m2},Equipment per person {W/person},Fraction Latent,Fraction Radiant,Fraction Lost,Fraction Convected,End-Use SubCategory,Nominal Minimum Equipment Level {W},Nominal Maximum Equipment Level {W}
 ElectricEquipment Internal Gains Nominal, CORE_BOTTOM_MISCPLUG_EQUIP,BLDG_EQUIP_SCH,CORE_BOTTOM,983.54,52.9,7937.156,8.070,149.931,0.000,0.500,0.000,0.500,MiscPlug,0.000,7937.156
 ElectricEquipment Internal Gains Nominal, CORE_MID_MISCPLUG_EQUIP,BLDG_EQUIP_SCH,CORE_MID,983.54,52.9,7937.156,8.070,149.931,0.000,0.500,0.000,0.500,MiscPlug,0.000,7937.156
 ElectricEquipment Internal Gains Nominal, CORE_TOP_MISCPLUG_EQUIP,BLDG_EQUIP_SCH,CORE_TOP,983.54,52.9,7937.156,8.070,149.931,0.000,0.500,0.000,0.500,MiscPlug,0.000,7937.156
 ElectricEquipment Internal Gains Nominal, PERIMETER_TOP_ZN_3_MISCPLUG_EQUIP,BLDG_EQUIP_SCH,PERIMETER_TOP_ZN_3,207.34,11.2,1673.214,8.070,149.930,0.000,0.500,0.000,0.500,MiscPlug,0.000,1673.214
 ElectricEquipment Internal Gains Nominal, PERIMETER_TOP_ZN_2_MISCPLUG_EQUIP,BLDG_EQUIP_SCH,PERIMETER_TOP_ZN_2,131.26,7.1,1059.217,8.069,149.921,0.000,0.500,0.000,0.500,MiscPlug,0.000,1059.217
 ElectricEquipment Internal Gains Nominal, PERIMETER_TOP_ZN_1_MISCPLUG_EQUIP,BLDG_EQUIP_SCH,PERIMETER_TOP_ZN_1,207.34,11.2,1673.203,8.070,149.929,0.000,0.500,0.000,0.500,MiscPlug,0.000,1673.203
 ElectricEquipment Internal Gains Nominal, PERIMETER_TOP_ZN_4_MISCPLUG_EQUIP,BLDG_EQUIP_SCH,PERIMETER_TOP_ZN_4,131.25,7.1,1059.210,8.070,149.930,0.000,0.500,0.000,0.500,MiscPlug,0.000,1059.210
 ElectricEquipment Internal Gains Nominal, PERIMETER_BOT_ZN_3_MISCPLUG_EQUIP,BLDG_EQUIP_SCH,PERIMETER_BOT_ZN_3,207.34,11.2,1673.214,8.070,149.930,0.000,0.500,0.000,0.500,MiscPlug,0.000,1673.214
 ElectricEquipment Internal Gains Nominal, PERIMETER_BOT_ZN_2_MISCPLUG_EQUIP,BLDG_EQUIP_SCH,PERIMETER_BOT_ZN_2,131.26,7.1,1059.217,8.069,149.921,0.000,0.500,0.000,0.500,MiscPlug,0.000,1059.217
 ElectricEquipment Internal Gains Nominal, PERIMETER_BOT_ZN_1_MISCPLUG_EQUIP,BLDG_EQUIP_SCH,PERIMETER_BOT_ZN_1,207.34,11.2,1673.203,8.070,149.929,0.000,0.500,0.000,0.500,MiscPlug,0.000,1673.203
 ElectricEquipment Internal Gains Nominal, PERIMETER_BOT_ZN_4_MISCPLUG_EQUIP,BLDG_EQUIP_SCH,PERIMETER_BOT_ZN_4,131.25,7.1,1059.210,8.070,149.930,0.000,0.500,0.000,0.500,MiscPlug,0.000,1059.210
 ElectricEquipment Internal Gains Nominal, PERIMETER_MID_ZN_3_MISCPLUG_EQUIP,BLDG_EQUIP_SCH,PERIMETER_MID_ZN_3,207.34,11.2,1673.214,8.070,149.930,0.000,0.500,0.000,0.500,MiscPlug,0.000,1673.214
 ElectricEquipment Internal Gains Nominal, PERIMETER_MID_ZN_2_MISCPLUG_EQUIP,BLDG_EQUIP_SCH,PERIMETER_MID_ZN_2,131.26,7.1,1059.217,8.069,149.921,0.000,0.500,0.000,0.500,MiscPlug,0.000,1059.217
 ElectricEquipment Internal Gains Nominal, PERIMETER_MID_ZN_1_MISCPLUG_EQUIP,BLDG_EQUIP_SCH,PERIMETER_MID_ZN_1,207.34,11.2,1673.203,8.070,149.929,0.000,0.500,0.000,0.500,MiscPlug,0.000,1673.203
 ElectricEquipment Internal Gains Nominal, PERIMETER_MID_ZN_4_MISCPLUG_EQUIP,BLDG_EQUIP_SCH,PERIMETER_MID_ZN_4,131.25,7.1,1059.210,8.070,149.930,0.000,0.500,0.000,0.500,MiscPlug,0.000,1059.210
 ElectricEquipment Internal Gains Nominal, CORE_BOTTOM_ELEVATORS_EQUIP,BLDG_ELEVATORS,CORE_BOTTOM,983.54,52.9,32109.890,32.647,606.549,0.000,0.500,0.000,0.500,ElevatorLift,0.000,22155.824
 ElectricEquipment Internal Gains Nominal, ELEVATORS_LIGHTS_FAN,ELEV_LIGHT_FAN_SCH_ADD_DF,CORE_BOTTOM,983.54,52.9,125.000,0.127,2.361,0.000,0.500,0.000,0.500,ElevatorLightsFan,0.000,86.250
! <Construction CTF>,Construction Name,Index,#Layers,#CTFs,Time Step {hours},ThermalConductance {w/m2-K},OuterThermalAbsorptance,InnerThermalAbsorptance,OuterSolarAbsorptance,InnerSolarAbsorptance,Roughness
! <Material CTF Summary>,Material Name,Thickness {m},Conductivity {w/m-K},Density {kg/m3},Specific Heat {J/kg-K},ThermalResistance {m2-K/w}
! <Material:Air>,Material Name,ThermalResistance {m2-K/w}
! <CTF>,Time,Outside,Cross,Inside,Flux (except final one)
 Construction CTF,SWINGING DOOR_CON,   1,   1,   1,   0.167,      2.101    ,   0.900,   0.900,   0.700,   0.700,MediumRough
 Material CTF Summary,OPAQUE DOOR PANEL_CON,  0.0000,         0.000,      0.000,        0.000,  0.4760    
 CTF,   1,       0.0000000    ,       0.0000000    ,      -0.0000000    ,      -0.0000000    
 CTF,   0,       2.1010000    ,       2.1010000    ,       2.1010000    
 Construction CTF,INTERIORFURNISHINGS,   2,   1,   9,   0.167,     0.8000    ,   0.900,   0.900,   0.700,   0.700,MediumSmooth
 Material CTF Summary,STD WOOD 6INCH,  0.1500,         0.120,    540.000,     1210.000,   1.250    
 CTF,   9,     -0.27580628E-02,      0.97439125E-12,     -0.27580628E-02,      0.28516790E-03
 CTF,   8,      0.73590997E-01,      0.21837543E-08,      0.73590997E-01,     -0.77836043E-02
 CTF,   7,     -0.82599318    ,      0.23162835E-06,     -0.82599318    ,      0.89703933E-01
 CTF,   6,       5.1113916    ,      0.48671053E-05,       5.1113916    ,     -0.57224845    
 CTF,   5,      -19.214933    ,      0.30163627E-04,      -19.214933    ,       2.2266322    
 CTF,   4,       45.557404    ,      0.63181060E-04,       45.557404    ,      -5.4853312    
 CTF,   3,      -68.275533    ,      0.44785456E-04,      -68.275533    ,       8.5710568    
 CTF,   2,       62.555368    ,      0.93952058E-05,       62.555368    ,      -8.2111738    
 CTF,   1,      -31.904423    ,      0.39200004E-06,      -31.904423    ,       4.3886678    
 CTF,   0,       6.9260389    ,      0.77047546E-09,       6.9260389    
 Construction CTF,DROPCEILING,   4,   1,   3,   0.167,      4.488    ,   0.900,   0.900,   0.700,   0.700,MediumSmooth
 Material CTF Summary,AC02 ACOUSTIC CEILING,  0.0127,         0.057,    288.000,     1339.000,  0.2228    
 CTF,   3,     -0.21589802E-09,      0.15643069E-09,     -0.21589802E-09,      0.12999471E-21
 CTF,   2,      0.50772448E-02,      0.30006816E-02,      0.50772448E-02,     -0.13693132E-08
 CTF,   1,      -2.5944910    ,       1.4597758    ,      -2.5944910    ,      0.76344767E-02
 CTF,   0,       7.0433378    ,       2.9911476    ,       7.0433378    
 Construction CTF,INT_WALL,   7,   2,   4,   0.167,      6.299    ,   0.900,   0.900,   0.700,   0.700,Smooth
 Material CTF Summary,G01 13MM GYPSUM BOARD,  0.0127,         0.160,    800.000,     1090.000,  0.7937E-01
 Material CTF Summary,G01 13MM GYPSUM BOARD,  0.0127,         0.160,    800.000,     1090.000,  0.7937E-01
 CTF,   4,      0.68458728E-09,      0.26079551E-09,      0.68458728E-09,     -0.34507121E-18
 CTF,   3,     -0.72180374E-03,      0.24295686E-03,     -0.72180374E-03,      0.69691454E-09
 CTF,   2,      0.83054762    ,      0.27682775    ,      0.83054762    ,     -0.35168967E-03
 CTF,   1,      -12.650482    ,       3.3590720    ,      -12.650482    ,      0.19281313    
 CTF,   0,       16.907513    ,       1.4507143    ,       16.907513    
 Construction CTF,INT_SLAB_FLOOR,  12,   2,   7,   0.167,      3.839    ,   0.900,   0.900,   0.700,   0.700,MediumRough
 Material CTF Summary,100MM NORMALWEIGHT CONCRETE FLOOR,  0.1016,         2.310,   2322.000,      832.000,  0.4398E-01
 Material CTF Summary,CP02 CARPET PAD,  0.0000,         0.000,      0.000,        0.000,  0.2165    
 CTF,   7,      0.43260499E-16,      0.34524919E-16,      0.52793240E-17,       0.0000000    
 CTF,   6,      0.69434179E-09,      0.98085174E-11,      0.18162501E-10,     -0.40870994E-12
 CTF,   5,     -0.12888762E-04,      0.28373718E-06,     -0.16918523E-06,      0.92361873E-08
 CTF,   4,      0.25174112E-01,      0.33697681E-03,      0.22646198E-03,     -0.31467795E-04
 CTF,   3,      -3.7600775    ,      0.27170599E-01,     -0.48495626E-01,      0.94171705E-02
 CTF,   2,       51.553741    ,      0.22121684    ,       1.2284947    ,     -0.25833933    
 CTF,   1,      -128.86110    ,      0.21944682    ,      -5.1479470    ,       1.1228340    
 CTF,   0,       81.526494    ,      0.16043334E-01,       4.4519351    
 Construction CTF,INT_SLAB_CEILING,  13,   2,   7,   0.167,      3.839    ,   0.900,   0.900,   0.700,   0.700,VeryRough
 Material CTF Summary,CP02 CARPET PAD,  0.0000,         0.000,      0.000,        0.000,  0.2165    
 Material CTF Summary,100MM NORMALWEIGHT CONCRETE FLOOR,  0.1016,         2.310,   2322.000,      832.000,  0.4398E-01
 CTF,   7,      0.52793240E-17,      0.34524919E-16,      0.43260499E-16,       0.0000000    
 CTF,   6,      0.18162501E-10,      0.98085174E-11,      0.69434179E-09,     -0.40870994E-12
 CTF,   5,     -0.16918523E-06,      0.28373718E-06,     -0.12888762E-04,      0.92361873E-08
 CTF,   4,      0.22646198E-03,      0.33697681E-03,      0.25174112E-01,     -0.31467795E-04
 CTF,   3,     -0.48495626E-01,      0.27170599E-01,      -3.7600775    ,      0.94171705E-02
 CTF,   2,       1.2284947    ,      0.22121684    ,       51.553741    ,     -0.25833933    
 CTF,   1,      -5.1479470    ,      0.21944682    ,      -128.86110    ,       1.1228340    
 CTF,   0,       4.4519351    ,      0.16043334E-01,       81.526494    
 Construction CTF,NONRES_ROOF,  17,   3,   3,   0.167,     0.2284    ,   0.750,   0.900,   0.450,   0.700,Rough
 Material CTF Summary,F13 BUILT-UP ROOFING,  0.0095,         0.160,   1120.000,     1460.000,  0.5938E-01
 Material CTF Summary,NONRES_ROOF_INSULATION,  0.0000,         0.000,      0.000,        0.000,   4.319    
 Material CTF Summary,F08 METAL SURFACE,  0.0008,        45.280,   7824.000,      500.000,  0.1767E-04
 CTF,   3,     -0.62451068E-06,      0.10350887E-08,     -0.38276125E-05,      0.11995084E-16
 CTF,   2,      0.77976586    ,      0.13989883E-02,       1.0579789    ,     -0.73382352E-06
 CTF,   1,      -21.958702    ,      0.93426804E-01,      -6.3215779    ,      0.20283230    
 CTF,   0,       21.361010    ,      0.87247630E-01,       5.4456762    
 Construction CTF,NONRES_EXT_WALL,  20,   4,   7,   0.167,     0.4678    ,   0.900,   0.900,   0.700,   0.700,Smooth
 Material CTF Summary,F07 25MM STUCCO,  0.0254,         0.720,   1856.000,      840.000,  0.3528E-01
 Material CTF Summary,G01 16MM GYPSUM BOARD,  0.0159,         0.160,    800.000,     1090.000,  0.9938E-01
 Material CTF Summary,NONRES_EXTERIOR_WALL_INSULATION,  0.0000,         0.000,      0.000,        0.000,   1.903    
 Material CTF Summary,G01 16MM GYPSUM BOARD,  0.0159,         0.160,    800.000,     1090.000,  0.9938E-01
 CTF,   7,     -0.37383775E-12,      0.81582362E-15,     -0.12542534E-12,      0.11541335E-15
 CTF,   6,      0.32294454E-07,      0.13597119E-09,      0.73677206E-08,     -0.15476624E-12
 CTF,   5,     -0.20833553E-03,      0.11386595E-05,     -0.10688959E-03,      0.72710034E-08
 CTF,   4,      0.31322919    ,      0.54351077E-03,      0.10727732    ,     -0.36571185E-04
 CTF,   3,      -7.6832781    ,      0.16549290E-01,      -2.4626776    ,      0.31053958E-01
 CTF,   2,       42.245606    ,      0.57933024E-01,       15.771342    ,     -0.34865193    
 CTF,   1,      -81.598353    ,      0.25789083E-01,      -29.595166    ,       1.1010509    
 CTF,   0,       46.824332    ,      0.51189598E-03,       16.280659    
 Construction CTF,PERIMETER_BOT_ZN_1_FLOOR_FFACTOR,  30,   2,   7,   0.167,     0.3192    ,   0.000,   0.900,   0.000,   0.700,MediumRough
 Material CTF Summary,~FC_Insulation_1,  0.0000,         0.000,      0.000,        0.000,   3.056    
 Material CTF Summary,~FC_Concrete,  0.1500,         1.950,   2240.000,      900.000,  0.7692E-01
 CTF,   7,     -0.13059908E-08,     -0.16504735E-15,      0.90649122E-14,     -0.12541312E-15
 CTF,   6,      0.89164571E-05,      0.61445766E-08,      0.31804070E-02,     -0.26679919E-04
 CTF,   5,     -0.64531733E-03,      0.36428408E-05,     -0.22318667    ,      0.19514025E-02
 CTF,   4,      0.14868215E-01,      0.16589759E-03,       4.8205855    ,     -0.45178851E-01
 CTF,   3,     -0.13063200    ,      0.13198961E-02,      -37.970795    ,      0.39809422    
 CTF,   2,      0.46393162    ,      0.21965806E-02,       116.38542    ,      -1.4166214    
 CTF,   1,     -0.66966470    ,      0.66967549E-03,      -143.84930    ,       2.0480865    
 CTF,   0,      0.32650513    ,      0.16166393E-04,       60.838472    
 Construction CTF,PERIMETER_BOT_ZN_2_FLOOR_FFACTOR,  31,   2,   7,   0.167,     0.3371    ,   0.000,   0.900,   0.000,   0.700,MediumRough
 Material CTF Summary,~FC_Insulation_2,  0.0000,         0.000,      0.000,        0.000,   2.890    
 Material CTF Summary,~FC_Concrete,  0.1500,         1.950,   2240.000,      900.000,  0.7692E-01
 CTF,   7,     -0.12346633E-08,     -0.14425311E-15,      0.91357700E-14,     -0.10087110E-15
 CTF,   6,      0.94177090E-05,      0.64929528E-08,      0.31789869E-02,     -0.26668006E-04
 CTF,   5,     -0.68205191E-03,      0.38502154E-05,     -0.22310594    ,      0.19506899E-02
 CTF,   4,      0.15716902E-01,      0.17535208E-03,       4.8192406    ,     -0.45165923E-01
 CTF,   3,     -0.13809356    ,      0.13952366E-02,      -37.963195    ,      0.39801023    
 CTF,   2,      0.49043520    ,      0.23220647E-02,       116.37063    ,      -1.4164235    
 CTF,   1,     -0.70792287    ,      0.70803996E-03,      -143.84059    ,       2.0479434    
 CTF,   0,      0.34515858    ,      0.17069463E-04,       60.838472    
 Construction CTF,PERIMETER_BOT_ZN_3_FLOOR_FFACTOR,  32,   2,   7,   0.167,     0.3192    ,   0.000,   0.900,   0.000,   0.700,MediumRough
 Material CTF Summary,~FC_Insulation_3,  0.0000,         0.000,      0.000,        0.000,   3.056    
 Material CTF Summary,~FC_Concrete,  0.1500,         1.950,   2240.000,      900.000,  0.7692E-01
 CTF,   7,     -0.13059908E-08,     -0.16504735E-15,      0.90649122E-14,     -0.12541312E-15
 CTF,   6,      0.89164571E-05,      0.61445766E-08,      0.31804070E-02,     -0.26679919E-04
 CTF,   5,     -0.64531733E-03,      0.36428408E-05,     -0.22318667    ,      0.19514025E-02
 CTF,   4,      0.14868215E-01,      0.16589759E-03,       4.8205855    ,     -0.45178851E-01
 CTF,   3,     -0.13063200    ,      0.13198961E-02,      -37.970795    ,      0.39809422    
 CTF,   2,      0.46393162    ,      0.21965806E-02,       116.38542    ,      -1.4166214    
 CTF,   1,     -0.66966470    ,      0.66967549E-03,      -143.84930    ,       2.0480865    
 CTF,   0,      0.32650513    ,      0.16166393E-04,       60.838472    
 Construction CTF,PERIMETER_BOT_ZN_4_FLOOR_FFACTOR,  33,   2,   7,   0.167,     0.3371    ,   0.000,   0.900,   0.000,   0.700,MediumRough
 Material CTF Summary,~FC_Insulation_4,  0.0000,         0.000,      0.000,        0.000,   2.890    
 Material CTF Summary,~FC_Concrete,  0.1500,         1.950,   2240.000,      900.000,  0.7692E-01
 CTF,   7,     -0.12345751E-08,     -0.14398051E-15,      0.92894684E-14,     -0.10085648E-15
 CTF,   6,      0.94183649E-05,      0.64934092E-08,      0.31789851E-02,     -0.26667991E-04
 CTF,   5,     -0.68209995E-03,      0.38504865E-05,     -0.22310583    ,      0.19506890E-02
 CTF,   4,      0.15718012E-01,      0.17536444E-03,       4.8192388    ,     -0.45165906E-01
 CTF,   3,     -0.13810332    ,      0.13953351E-02,      -37.963185    ,      0.39801012    
 CTF,   2,      0.49046985    ,      0.23222288E-02,       116.37061    ,      -1.4164232    
 CTF,   1,     -0.70797289    ,      0.70809005E-03,      -143.84058    ,       2.0479432    
 CTF,   0,      0.34518296    ,      0.17070678E-04,       60.838472    
 Construction CTF,CORE_BOT_ZN_5_FLOOR_FFACTOR,  34,   2,   8,   0.167,     0.5650E-02,   0.000,   0.900,   0.000,   0.700,MediumRough
 Material CTF Summary,~FC_Insulation_5,  0.0000,         0.000,      0.000,        0.000,   176.9    
 Material CTF Summary,~FC_Concrete,  0.1500,         1.950,   2240.000,      900.000,  0.7692E-01
 CTF,   8,      0.57026216E-10,     -0.29656739E-13,      0.26072253E-13,     -0.16907584E-15
 CTF,   7,     -0.80728763E-07,      0.14958947E-11,     -0.10196182E-04,      0.85534123E-07
 CTF,   6,      0.59163330E-05,      0.23390251E-08,      0.39199948E-02,     -0.33137873E-04
 CTF,   5,     -0.14678961E-03,      0.29443049E-06,     -0.24001665    ,      0.21083805E-02
 CTF,   4,      0.15257864E-02,      0.63469284E-05,       4.9653291    ,     -0.46676227E-01
 CTF,   3,     -0.74362311E-02,      0.30151767E-04,      -38.474208    ,      0.40407555    
 CTF,   2,      0.17883035E-01,      0.32406056E-04,       117.10039    ,      -1.4265819    
 CTF,   1,     -0.20235698E-01,      0.62001922E-05,      -144.19380    ,       2.0537490    
 CTF,   0,      0.84795330E-02,      0.69040512E-07,       60.838472    
! <WindowConstruction>,Construction Name,Index,#Layers,Roughness,Conductance {W/m2-K},SHGC,Solar Transmittance at Normal Incidence,Visible Transmittance at Normal Incidence
! <WindowMaterial:Glazing>, Material Name, Optical Data Type, Spectral Data Set Name, Thickness {m}, Solar Transmittance,Front Solar Reflectance, Back Solar Reflectance, Visible Transmittance, Front Visible Reflectance,Back Visible Reflectance,Infrared Transmittance, Front Thermal Emissivity, Back Thermal Emissivity,Conductivity {W/m-K},Dirt Factor,Solar Diffusing
 WindowConstruction,WINDOW_U_0.42_SHGC_0.25,29,1,VerySmooth,2.387,0.252,0.162,0.276
 WindowMaterial:Glazing,GLAZING LAYER,SpectralAverage,,3.02786E-002,0.16139,0.62081,0.62081,0.27500,0.15630,0.22588,0.00000,0.84000,0.84000,0.12239,1.00000,No
! <Shadowing/Sun Position Calculations Annual Simulations>, Calculation Method, Value {days}, Allowable Number Figures in Shadow Overlap {}, Polygon Clipping Algorithm, Sky Diffuse Modeling Algorithm, External Shading Calculation Method, Output External Shading Calculation Results, Disable Self-Shading Within Shading Zone Groups, Disable Self-Shading From Shading Zone Groups to Other Zones
Shadowing/Sun Position Calculations Annual Simulations,AverageOverDaysInFrequency,30,15000,SutherlandHodgman,SimpleSkyDiffuseModeling,InternalCalculation,No,No,No
! <Zone/Window Adjacency Daylighting Counts>, Zone Name, Number of Exterior Windows, Number of Exterior Windows in Adjacent Zones
Zone/Window Adjacency Daylighting Counts, PERIMETER_TOP_ZN_3,1,0
Zone/Window Adjacency Daylighting Counts, PERIMETER_TOP_ZN_2,1,0
Zone/Window Adjacency Daylighting Counts, PERIMETER_TOP_ZN_1,1,0
Zone/Window Adjacency Daylighting Counts, PERIMETER_TOP_ZN_4,1,0
Zone/Window Adjacency Daylighting Counts, PERIMETER_BOT_ZN_3,3,0
Zone/Window Adjacency Daylighting Counts, PERIMETER_BOT_ZN_2,2,0
Zone/Window Adjacency Daylighting Counts, PERIMETER_BOT_ZN_1,3,0
Zone/Window Adjacency Daylighting Counts, PERIMETER_BOT_ZN_4,2,0
Zone/Window Adjacency Daylighting Counts, PERIMETER_MID_ZN_3,1,0
Zone/Window Adjacency Daylighting Counts, PERIMETER_MID_ZN_2,1,0
Zone/Window Adjacency Daylighting Counts, PERIMETER_MID_ZN_1,1,0
Zone/Window Adjacency Daylighting Counts, PERIMETER_MID_ZN_4,1,0
! <Zone/Window Adjacency Daylighting Matrix>, Zone Name, Number of Adjacent Zones with Windows,Adjacent Zone Names - 1st 100 (max)
Zone/Window Adjacency Daylighting Matrix, PERIMETER_TOP_ZN_3,0
Zone/Window Adjacency Daylighting Matrix, PERIMETER_TOP_ZN_2,0
Zone/Window Adjacency Daylighting Matrix, PERIMETER_TOP_ZN_1,0
Zone/Window Adjacency Daylighting Matrix, PERIMETER_TOP_ZN_4,0
Zone/Window Adjacency Daylighting Matrix, PERIMETER_BOT_ZN_3,0
Zone/Window Adjacency Daylighting Matrix, PERIMETER_BOT_ZN_2,0
Zone/Window Adjacency Daylighting Matrix, PERIMETER_BOT_ZN_1,0
Zone/Window Adjacency Daylighting Matrix, PERIMETER_BOT_ZN_4,0
Zone/Window Adjacency Daylighting Matrix, PERIMETER_MID_ZN_3,0
Zone/Window Adjacency Daylighting Matrix, PERIMETER_MID_ZN_2,0
Zone/Window Adjacency Daylighting Matrix, PERIMETER_MID_ZN_1,0
Zone/Window Adjacency Daylighting Matrix, PERIMETER_MID_ZN_4,0
! <Water Heater Information>,Type,Name,Volume {m3},Maximum Capacity {W},Standard Rated Recovery Efficiency, Standard Rated Energy Factor
! <Surface Convection Parameters>, Surface Name, Outside Model Assignment, Outside Area [m2], Outside Perimeter [m], Outside Height [m], Inside Model Assignment, Inside Height [m], Inside Perimeter Envelope [m], Inside Hydraulic Diameter [m], Window Wall Ratio, Window Location, Near Radiant {Yes/No}, Has Active HVAC {Yes/No}
Surface Convection Parameters,CORE_BOT_ZN_5_WALL_SOUTH,0,0.00,0.00,0.00,0,2.74,0.00,30.31,-999.00,0,No,No
Surface Convection Parameters,CORE_BOT_ZN_5_WALL_EAST,0,0.00,0.00,0.00,0,2.74,0.00,30.31,-999.00,0,No,No
Surface Convection Parameters,CORE_BOT_ZN_5_WALL_NORTH,0,0.00,0.00,0.00,0,2.74,0.00,30.31,-999.00,0,No,No
Surface Convection Parameters,CORE_BOT_ZN_5_WALL_WEST,0,0.00,0.00,0.00,0,2.74,0.00,30.31,-999.00,0,No,No
Surface Convection Parameters,CORE_BOT_ZN_5_FLOOR,0,0.00,0.00,0.00,0,2.74,0.00,30.31,-999.00,0,No,No
Surface Convection Parameters,CORE_BOT_ZN_5_CEILING,0,0.00,0.00,0.00,0,2.74,0.00,30.31,-999.00,0,No,No
Surface Convection Parameters,CORE_BOTTOM_INTERNALMASS_1,0,0.00,0.00,0.00,0,2.74,0.00,30.31,-999.00,0,No,No
Surface Convection Parameters,PERIMETER_TOP_PLENUM_WALL_NORTH,0,593.30,143.75,11.89,0,1.22,166.37,39.93,0.00,0,No,No
Surface Convection Parameters,PERIMETER_TOP_PLENUM_WALL_EAST,0,395.53,143.75,11.89,0,1.22,166.37,39.93,0.00,0,No,No
Surface Convection Parameters,PERIMETER_TOP_PLENUM_WALL_SOUTH,0,593.30,123.60,11.89,0,1.22,166.37,39.93,0.00,0,No,No
Surface Convection Parameters,PERIMETER_TOP_PLENUM_WALL_WEST,0,395.53,90.32,11.89,0,1.22,166.37,39.93,0.00,0,No,No
Surface Convection Parameters,iz-PERIMETER_TOP_ZN_1_CEILING,0,0.00,0.00,0.00,0,1.22,166.37,39.93,0.00,0,No,No
Surface Convection Parameters,iz-PERIMETER_TOP_ZN_2_CEILING,0,0.00,0.00,0.00,0,1.22,166.37,39.93,0.00,0,No,No
Surface Convection Parameters,iz-PERIMETER_TOP_ZN_3_CEILING,0,0.00,0.00,0.00,0,1.22,166.37,39.93,0.00,0,No,No
Surface Convection Parameters,iz-PERIMETER_TOP_ZN_4_CEILING,0,0.00,0.00,0.00,0,1.22,166.37,39.93,0.00,0,No,No
Surface Convection Parameters,iz-CORE_TOP_ZN_5_CEILING,0,0.00,0.00,0.00,0,1.22,166.37,39.93,0.00,0,No,No
Surface Convection Parameters,BUILDING_ROOF,0,1660.73,183.01,0.00,0,1.22,166.37,39.93,0.00,0,No,No
Surface Convection Parameters,PERIMETER_MID_PLENUM_WALL_NORTH,0,593.30,143.75,11.89,0,1.22,166.37,39.93,0.00,0,No,No
Surface Convection Parameters,PERIMETER_MID_PLENUM_WALL_EAST,0,395.53,143.75,11.89,0,1.22,166.37,39.93,0.00,0,No,No
Surface Convection Parameters,PERIMETER_MID_PLENUM_WALL_SOUTH,0,593.30,123.60,11.89,0,1.22,166.37,39.93,0.00,0,No,No
Surface Convection Parameters,PERIMETER_MID_PLENUM_WALL_WEST,0,395.53,90.32,11.89,0,1.22,166.37,39.93,0.00,0,No,No
Surface Convection Parameters,iz-PERIMETER_MID_ZN_1_CEILING,0,0.00,0.00,0.00,0,1.22,166.37,39.93,0.00,0,No,No
Surface Convection Parameters,iz-PERIMETER_MID_ZN_2_CEILING,0,0.00,0.00,0.00,0,1.22,166.37,39.93,0.00,0,No,No
Surface Convection Parameters,iz-PERIMETER_MID_ZN_3_CEILING,0,0.00,0.00,0.00,0,1.22,166.37,39.93,0.00,0,No,No
Surface Convection Parameters,iz-PERIMETER_MID_ZN_4_CEILING,0,0.00,0.00,0.00,0,1.22,166.37,39.93,0.00,0,No,No
Surface Convection Parameters,iz-CORE_MID_ZN_5_CEILING,0,0.00,0.00,0.00,0,1.22,166.37,39.93,0.00,0,No,No
Surface Convection Parameters,iz-PERIMETER_TOP_ZN_1_FLOOR,0,0.00,0.00,0.00,0,1.22,166.37,39.93,0.00,0,No,No
Surface Convection Parameters,iz-PERIMETER_TOP_ZN_2_FLOOR,0,0.00,0.00,0.00,0,1.22,166.37,39.93,0.00,0,No,No
Surface Convection Parameters,iz-PERIMETER_TOP_ZN_3_FLOOR,0,0.00,0.00,0.00,0,1.22,166.37,39.93,0.00,0,No,No
Surface Convection Parameters,iz-PERIMETER_TOP_ZN_4_FLOOR,0,0.00,0.00,0.00,0,1.22,166.37,39.93,0.00,0,No,No
Surface Convection Parameters,iz-CORE_TOP_ZN_5_FLOOR,0,0.00,0.00,0.00,0,1.22,166.37,39.93,0.00,0,No,No
Surface Convection Parameters,PERIMETER_BOT_PLENUM_WALL_NORTH,0,593.30,143.75,11.89,0,1.22,166.37,39.93,0.00,0,No,No
Surface Convection Parameters,PERIMETER_BOT_PLENUM_WALL_EAST,0,395.53,143.75,11.89,0,1.22,166.37,39.93,0.00,0,No,No
Surface Convection Parameters,PERIMETER_BOT_PLENUM_WALL_SOUTH,0,593.30,123.60,11.89,0,1.22,166.37,39.93,0.00,0,No,No
Surface Convection Parameters,PERIMETER_BOT_PLENUM_WALL_WEST,0,395.53,90.32,11.89,0,1.22,166.37,39.93,0.00,0,No,No
Surface Convection Parameters,iz-PERIMETER_BOT_ZN_1_CEILING,0,0.00,0.00,0.00,0,1.22,166.37,39.93,0.00,0,No,No
Surface Convection Parameters,iz-PERIMETER_BOT_ZN_2_CEILING,0,0.00,0.00,0.00,0,1.22,166.37,39.93,0.00,0,No,No
Surface Convection Parameters,iz-PERIMETER_BOT_ZN_3_CEILING,0,0.00,0.00,0.00,0,1.22,166.37,39.93,0.00,0,No,No
Surface Convection Parameters,iz-PERIMETER_BOT_ZN_4_CEILING,0,0.00,0.00,0.00,0,1.22,166.37,39.93,0.00,0,No,No
Surface Convection Parameters,iz-CORE_BOT_ZN_5_CEILING,0,0.00,0.00,0.00,0,1.22,166.37,39.93,0.00,0,No,No
Surface Convection Parameters,iz-PERIMETER_MID_ZN_1_FLOOR,0,0.00,0.00,0.00,0,1.22,166.37,39.93,0.00,0,No,No
Surface Convection Parameters,iz-PERIMETER_MID_ZN_2_FLOOR,0,0.00,0.00,0.00,0,1.22,166.37,39.93,0.00,0,No,No
Surface Convection Parameters,iz-PERIMETER_MID_ZN_3_FLOOR,0,0.00,0.00,0.00,0,1.22,166.37,39.93,0.00,0,No,No
Surface Convection Parameters,iz-PERIMETER_MID_ZN_4_FLOOR,0,0.00,0.00,0.00,0,1.22,166.37,39.93,0.00,0,No,No
Surface Convection Parameters,iz-CORE_MID_ZN_5_FLOOR,0,0.00,0.00,0.00,0,1.22,166.37,39.93,0.00,0,No,No
Surface Convection Parameters,CORE_MID_ZN_5_WALL_NORTH,0,0.00,0.00,0.00,0,2.74,0.00,30.31,-999.00,0,No,No
Surface Convection Parameters,CORE_MID_ZN_5_WALL_EAST,0,0.00,0.00,0.00,0,2.74,0.00,30.31,-999.00,0,No,No
Surface Convection Parameters,CORE_MID_ZN_5_WALL_SOUTH,0,0.00,0.00,0.00,0,2.74,0.00,30.31,-999.00,0,No,No
Surface Convection Parameters,CORE_MID_ZN_5_WALL_WEST,0,0.00,0.00,0.00,0,2.74,0.00,30.31,-999.00,0,No,No
Surface Convection Parameters,CORE_MID_ZN_5_FLOOR,0,0.00,0.00,0.00,0,2.74,0.00,30.31,-999.00,0,No,No
Surface Convection Parameters,CORE_MID_ZN_5_CEILING,0,0.00,0.00,0.00,0,2.74,0.00,30.31,-999.00,0,No,No
Surface Convection Parameters,CORE_MID_INTERNALMASS_1,0,0.00,0.00,0.00,0,2.74,0.00,30.31,-999.00,0,No,No
Surface Convection Parameters,CORE_TOP_ZN_5_WALL_NORTH,0,0.00,0.00,0.00,0,2.74,0.00,30.31,-999.00,0,No,No
Surface Convection Parameters,CORE_TOP_ZN_5_WALL_EAST,0,0.00,0.00,0.00,0,2.74,0.00,30.31,-999.00,0,No,No
Surface Convection Parameters,CORE_TOP_ZN_5_WALL_SOUTH,0,0.00,0.00,0.00,0,2.74,0.00,30.31,-999.00,0,No,No
Surface Convection Parameters,CORE_TOP_ZN_5_WALL_WEST,0,0.00,0.00,0.00,0,2.74,0.00,30.31,-999.00,0,No,No
Surface Convection Parameters,CORE_TOP_ZN_5_FLOOR,0,0.00,0.00,0.00,0,2.74,0.00,30.31,-999.00,0,No,No
Surface Convection Parameters,CORE_TOP_ZN_5_CEILING,0,0.00,0.00,0.00,0,2.74,0.00,30.31,-999.00,0,No,No
Surface Convection Parameters,CORE_TOP_INTERNALMASS_1,0,0.00,0.00,0.00,0,2.74,0.00,30.31,-999.00,0,No,No
Surface Convection Parameters,PERIMETER_TOP_ZN_3_WALL_NORTH,0,593.30,143.75,11.89,0,2.74,49.91,7.61,0.48,3,No,No
Surface Convection Parameters,PERIMETER_TOP_ZN_3_WALL_NORTH_WINDOW,0,593.30,143.75,11.89,0,2.74,49.91,7.61,0.48,2,No,No
Surface Convection Parameters,PERIMETER_TOP_ZN_3_WALL_WEST,0,0.00,0.00,0.00,0,2.74,49.91,7.61,0.48,0,No,No
Surface Convection Parameters,iz-PERIMETER_TOP_ZN_2_WALL_NORTH,0,0.00,0.00,0.00,0,2.74,49.91,7.61,0.48,0,No,No
Surface Convection Parameters,iz-CORE_TOP_ZN_5_WALL_NORTH,0,0.00,0.00,0.00,0,2.74,49.91,7.61,0.48,0,No,No
Surface Convection Parameters,PERIMETER_TOP_ZN_3_FLOOR,0,0.00,0.00,0.00,0,2.74,49.91,7.61,0.48,0,No,No
Surface Convection Parameters,PERIMETER_TOP_ZN_3_CEILING,0,0.00,0.00,0.00,0,2.74,49.91,7.61,0.48,0,No,No
Surface Convection Parameters,PERIMETER_TOP_ZN_3_INTERNALMASS_1,0,0.00,0.00,0.00,0,2.74,49.91,7.61,0.48,0,No,No
Surface Convection Parameters,PERIMETER_TOP_ZN_2_WALL_EAST,0,395.53,143.75,11.89,0,2.74,33.27,6.94,0.48,3,No,No
Surface Convection Parameters,PERIMETER_TOP_ZN_2_WALL_EAST_WINDOW,0,395.53,143.75,11.89,0,2.74,33.27,6.94,0.48,2,No,No
Surface Convection Parameters,PERIMETER_TOP_ZN_2_WALL_NORTH,0,0.00,0.00,0.00,0,2.74,33.27,6.94,0.48,0,No,No
Surface Convection Parameters,iz-PERIMETER_TOP_ZN_1_WALL_EAST,0,0.00,0.00,0.00,0,2.74,33.27,6.94,0.48,0,No,No
Surface Convection Parameters,iz-CORE_TOP_ZN_5_WALL_EAST,0,0.00,0.00,0.00,0,2.74,33.27,6.94,0.48,0,No,No
Surface Convection Parameters,PERIMETER_TOP_ZN_2_FLOOR,0,0.00,0.00,0.00,0,2.74,33.27,6.94,0.48,0,No,No
Surface Convection Parameters,PERIMETER_TOP_ZN_2_CEILING,0,0.00,0.00,0.00,0,2.74,33.27,6.94,0.48,0,No,No
Surface Convection Parameters,PERIMETER_TOP_ZN_2_INTERNALMASS_1,0,0.00,0.00,0.00,0,2.74,33.27,6.94,0.48,0,No,No
Surface Convection Parameters,PERIMETER_TOP_ZN_1_WALL_SOUTH,0,593.30,123.60,11.89,0,2.74,49.91,7.61,0.48,3,No,No
Surface Convection Parameters,PERIMETER_TOP_ZN_1_WALL_SOUTH_WINDOW,0,593.30,123.60,11.89,0,2.74,49.91,7.61,0.48,2,No,No
Surface Convection Parameters,PERIMETER_TOP_ZN_1_WALL_EAST,0,0.00,0.00,0.00,0,2.74,49.91,7.61,0.48,0,No,No
Surface Convection Parameters,iz-PERIMETER_TOP_ZN_4_WALL_SOUTH,0,0.00,0.00,0.00,0,2.74,49.91,7.61,0.48,0,No,No
Surface Convection Parameters,iz-CORE_TOP_ZN_5_WALL_SOUTH,0,0.00,0.00,0.00,0,2.74,49.91,7.61,0.48,0,No,No
Surface Convection Parameters,PERIMETER_TOP_ZN_1_FLOOR,0,0.00,0.00,0.00,0,2.74,49.91,7.61,0.48,0,No,No
Surface Convection Parameters,PERIMETER_TOP_ZN_1_CEILING,0,0.00,0.00,0.00,0,2.74,49.91,7.61,0.48,0,No,No
Surface Convection Parameters,PERIMETER_TOP_ZN_1_INTERNALMASS_1,0,0.00,0.00,0.00,0,2.74,49.91,7.61,0.48,0,No,No
Surface Convection Parameters,PERIMETER_TOP_ZN_4_WALL_WEST,0,395.53,90.32,11.89,0,2.74,33.27,6.94,0.48,3,No,No
Surface Convection Parameters,PERIMETER_TOP_ZN_4_WALL_WEST_WINDOW,0,395.53,90.32,11.89,0,2.74,33.27,6.94,0.48,2,No,No
Surface Convection Parameters,PERIMETER_TOP_ZN_4_WALL_SOUTH,0,0.00,0.00,0.00,0,2.74,33.27,6.94,0.48,0,No,No
Surface Convection Parameters,iz-PERIMETER_TOP_ZN_3_WALL_WEST,0,0.00,0.00,0.00,0,2.74,33.27,6.94,0.48,0,No,No
Surface Convection Parameters,iz-CORE_TOP_ZN_5_WALL_WEST,0,0.00,0.00,0.00,0,2.74,33.27,6.94,0.48,0,No,No
Surface Convection Parameters,PERIMETER_TOP_ZN_4_FLOOR,0,0.00,0.00,0.00,0,2.74,33.27,6.94,0.48,0,No,No
Surface Convection Parameters,PERIMETER_TOP_ZN_4_CEILING,0,0.00,0.00,0.00,0,2.74,33.27,6.94,0.48,0,No,No
Surface Convection Parameters,PERIMETER_TOP_ZN_4_INTERNALMASS_1,0,0.00,0.00,0.00,0,2.74,33.27,6.94,0.48,0,No,No
Surface Convection Parameters,PERIMETER_BOT_ZN_3_WALL_NORTH,0,593.30,143.75,11.89,0,2.74,49.91,7.61,0.48,3,No,No
Surface Convection Parameters,PERIMETER_BOT_ZN_3_WALL_NORTH_WINDOW1,0,593.30,143.75,11.89,0,2.74,49.91,7.61,0.48,2,No,No
Surface Convection Parameters,PERIMETER_BOT_ZN_3_WALL_NORTH_WINDOW2,0,593.30,143.75,11.89,0,2.74,49.91,7.61,0.48,2,No,No
Surface Convection Parameters,PERIMETER_BOT_ZN_3_WALL_NORTH_WINDOW3,0,593.30,143.75,11.89,0,2.74,49.91,7.61,0.48,2,No,No
Surface Convection Parameters,PERIMETER_BOT_ZN_3_WALL_NORTH_DOOR1,0,593.30,143.75,11.89,0,2.74,49.91,7.61,0.48,0,No,No
Surface Convection Parameters,PERIMETER_BOT_ZN_3_WALL_NORTH_DOOR2,0,593.30,143.75,11.89,0,2.74,49.91,7.61,0.48,0,No,No
Surface Convection Parameters,PERIMETER_BOT_ZN_3_WALL_WEST,0,0.00,0.00,0.00,0,2.74,49.91,7.61,0.48,0,No,No
Surface Convection Parameters,iz-PERIMETER_BOT_ZN_2_WALL_NORTH,0,0.00,0.00,0.00,0,2.74,49.91,7.61,0.48,0,No,No
Surface Convection Parameters,iz-CORE_BOT_ZN_5_WALL_NORTH,0,0.00,0.00,0.00,0,2.74,49.91,7.61,0.48,0,No,No
Surface Convection Parameters,PERIMETER_BOT_ZN_3_FLOOR,0,0.00,0.00,0.00,0,2.74,49.91,7.61,0.48,0,No,No
Surface Convection Parameters,PERIMETER_BOT_ZN_3_CEILING,0,0.00,0.00,0.00,0,2.74,49.91,7.61,0.48,0,No,No
Surface Convection Parameters,PERIMETER_BOT_ZN_3_INTERNALMASS_1,0,0.00,0.00,0.00,0,2.74,49.91,7.61,0.48,0,No,No
Surface Convection Parameters,PERIMETER_BOT_ZN_2_WALL_EAST,0,395.53,143.75,11.89,0,2.74,33.27,6.94,0.48,3,No,No
Surface Convection Parameters,PERIMETER_BOT_ZN_2_WALL_EAST_WINDOW1,0,395.53,143.75,11.89,0,2.74,33.27,6.94,0.48,2,No,No
Surface Convection Parameters,PERIMETER_BOT_ZN_2_WALL_EAST_WINDOW2,0,395.53,143.75,11.89,0,2.74,33.27,6.94,0.48,2,No,No
Surface Convection Parameters,PERIMETER_BOT_ZN_2_WALL_EAST_DOOR,0,395.53,143.75,11.89,0,2.74,33.27,6.94,0.48,0,No,No
Surface Convection Parameters,PERIMETER_BOT_ZN_2_WALL_NORTH,0,0.00,0.00,0.00,0,2.74,33.27,6.94,0.48,0,No,No
Surface Convection Parameters,iz-PERIMETER_BOT_ZN_1_WALL_EAST,0,0.00,0.00,0.00,0,2.74,33.27,6.94,0.48,0,No,No
Surface Convection Parameters,iz-CORE_BOT_ZN_5_WALL_EAST,0,0.00,0.00,0.00,0,2.74,33.27,6.94,0.48,0,No,No
Surface Convection Parameters,PERIMETER_BOT_ZN_2_FLOOR,0,0.00,0.00,0.00,0,2.74,33.27,6.94,0.48,0,No,No
Surface Convection Parameters,PERIMETER_BOT_ZN_2_CEILING,0,0.00,0.00,0.00,0,2.74,33.27,6.94,0.48,0,No,No
Surface Convection Parameters,PERIMETER_BOT_ZN_2_INTERNALMASS_1,0,0.00,0.00,0.00,0,2.74,33.27,6.94,0.48,0,No,No
Surface Convection Parameters,PERIMETER_BOT_ZN_1_WALL_SOUTH,0,593.30,123.60,11.89,0,2.74,49.91,7.61,0.48,3,No,No
Surface Convection Parameters,PERIMETER_BOT_ZN_1_WALL_SOUTH_WINDOW1,0,593.30,123.60,11.89,0,2.74,49.91,7.61,0.48,2,No,No
Surface Convection Parameters,PERIMETER_BOT_ZN_1_WALL_SOUTH_WINDOW2,0,593.30,123.60,11.89,0,2.74,49.91,7.61,0.48,2,No,No
Surface Convection Parameters,PERIMETER_BOT_ZN_1_WALL_SOUTH_WINDOW3,0,593.30,123.60,11.89,0,2.74,49.91,7.61,0.48,2,No,No
Surface Convection Parameters,PERIMETER_BOT_ZN_1_WALL_SOUTH_DOOR1,0,593.30,123.60,11.89,0,2.74,49.91,7.61,0.48,0,No,No
Surface Convection Parameters,PERIMETER_BOT_ZN_1_WALL_SOUTH_DOOR2,0,593.30,123.60,11.89,0,2.74,49.91,7.61,0.48,0,No,No
Surface Convection Parameters,PERIMETER_BOT_ZN_1_WALL_EAST,0,0.00,0.00,0.00,0,2.74,49.91,7.61,0.48,0,No,No
Surface Convection Parameters,iz-PERIMETER_BOT_ZN_4_WALL_SOUTH,0,0.00,0.00,0.00,0,2.74,49.91,7.61,0.48,0,No,No
Surface Convection Parameters,iz-CORE_BOT_ZN_5_WALL_SOUTH,0,0.00,0.00,0.00,0,2.74,49.91,7.61,0.48,0,No,No
Surface Convection Parameters,PERIMETER_BOT_ZN_1_FLOOR,0,0.00,0.00,0.00,0,2.74,49.91,7.61,0.48,0,No,No
Surface Convection Parameters,PERIMETER_BOT_ZN_1_CEILING,0,0.00,0.00,0.00,0,2.74,49.91,7.61,0.48,0,No,No
Surface Convection Parameters,PERIMETER_BOT_ZN_1_INTERNALMASS_1,0,0.00,0.00,0.00,0,2.74,49.91,7.61,0.48,0,No,No
Surface Convection Parameters,PERIMETER_BOT_ZN_4_WALL_WEST,0,395.53,90.32,11.89,0,2.74,33.27,6.94,0.48,3,No,No
Surface Convection Parameters,PERIMETER_BOT_ZN_4_WALL_WEST_WINDOW1,0,395.53,90.32,11.89,0,2.74,33.27,6.94,0.48,2,No,No
Surface Convection Parameters,PERIMETER_BOT_ZN_4_WALL_WEST_WINDOW2,0,395.53,90.32,11.89,0,2.74,33.27,6.94,0.48,2,No,No
Surface Convection Parameters,PERIMETER_BOT_ZN_4_WALL_WEST_DOOR,0,395.53,90.32,11.89,0,2.74,33.27,6.94,0.48,0,No,No
Surface Convection Parameters,PERIMETER_BOT_ZN_4_WALL_SOUTH,0,0.00,0.00,0.00,0,2.74,33.27,6.94,0.48,0,No,No
Surface Convection Parameters,iz-PERIMETER_BOT_ZN_3_WALL_WEST,0,0.00,0.00,0.00,0,2.74,33.27,6.94,0.48,0,No,No
Surface Convection Parameters,iz-CORE_BOT_ZN_5_WALL_WEST,0,0.00,0.00,0.00,0,2.74,33.27,6.94,0.48,0,No,No
Surface Convection Parameters,PERIMETER_BOT_ZN_4_FLOOR,0,0.00,0.00,0.00,0,2.74,33.27,6.94,0.48,0,No,No
Surface Convection Parameters,PERIMETER_BOT_ZN_4_CEILING,0,0.00,0.00,0.00,0,2.74,33.27,6.94,0.48,0,No,No
Surface Convection Parameters,PERIMETER_BOT_ZN_4_INTERNALMASS_1,0,0.00,0.00,0.00,0,2.74,33.27,6.94,0.48,0,No,No
Surface Convection Parameters,PERIMETER_MID_ZN_3_WALL_NORTH,0,593.30,143.75,11.89,0,2.74,49.91,7.61,0.48,3,No,No
Surface Convection Parameters,PERIMETER_MID_ZN_3_WALL_NORTH_WINDOW,0,593.30,143.75,11.89,0,2.74,49.91,7.61,0.48,2,No,No
Surface Convection Parameters,PERIMETER_MID_ZN_3_WALL_WEST,0,0.00,0.00,0.00,0,2.74,49.91,7.61,0.48,0,No,No
Surface Convection Parameters,iz-PERIMETER_MID_ZN_2_WALL_NORTH,0,0.00,0.00,0.00,0,2.74,49.91,7.61,0.48,0,No,No
Surface Convection Parameters,iz-CORE_MID_ZN_5_WALL_NORTH,0,0.00,0.00,0.00,0,2.74,49.91,7.61,0.48,0,No,No
Surface Convection Parameters,PERIMETER_MID_ZN_3_FLOOR,0,0.00,0.00,0.00,0,2.74,49.91,7.61,0.48,0,No,No
Surface Convection Parameters,PERIMETER_MID_ZN_3_CEILING,0,0.00,0.00,0.00,0,2.74,49.91,7.61,0.48,0,No,No
Surface Convection Parameters,PERIMETER_MID_ZN_3_INTERNALMASS_1,0,0.00,0.00,0.00,0,2.74,49.91,7.61,0.48,0,No,No
Surface Convection Parameters,PERIMETER_MID_ZN_2_WALL_EAST,0,395.53,143.75,11.89,0,2.74,33.27,6.94,0.48,3,No,No
Surface Convection Parameters,PERIMETER_MID_ZN_2_WALL_EAST_WINDOW,0,395.53,143.75,11.89,0,2.74,33.27,6.94,0.48,2,No,No
Surface Convection Parameters,PERIMETER_MID_ZN_2_WALL_NORTH,0,0.00,0.00,0.00,0,2.74,33.27,6.94,0.48,0,No,No
Surface Convection Parameters,iz-PERIMETER_MID_ZN_1_WALL_EAST,0,0.00,0.00,0.00,0,2.74,33.27,6.94,0.48,0,No,No
Surface Convection Parameters,iz-CORE_MID_ZN_5_WALL_EAST,0,0.00,0.00,0.00,0,2.74,33.27,6.94,0.48,0,No,No
Surface Convection Parameters,PERIMETER_MID_ZN_2_FLOOR,0,0.00,0.00,0.00,0,2.74,33.27,6.94,0.48,0,No,No
Surface Convection Parameters,PERIMETER_MID_ZN_2_CEILING,0,0.00,0.00,0.00,0,2.74,33.27,6.94,0.48,0,No,No
Surface Convection Parameters,PERIMETER_MID_ZN_2_INTERNALMASS_1,0,0.00,0.00,0.00,0,2.74,33.27,6.94,0.48,0,No,No
Surface Convection Parameters,PERIMETER_MID_ZN_1_WALL_SOUTH,0,593.30,123.60,11.89,0,2.74,49.91,7.61,0.48,3,No,No
Surface Convection Parameters,PERIMETER_MID_ZN_1_WALL_SOUTH_WINDOW,0,593.30,123.60,11.89,0,2.74,49.91,7.61,0.48,2,No,No
Surface Convection Parameters,PERIMETER_MID_ZN_1_WALL_EAST,0,0.00,0.00,0.00,0,2.74,49.91,7.61,0.48,0,No,No
Surface Convection Parameters,iz-PERIMETER_MID_ZN_4_WALL_SOUTH,0,0.00,0.00,0.00,0,2.74,49.91,7.61,0.48,0,No,No
Surface Convection Parameters,iz-CORE_MID_ZN_5_WALL_SOUTH,0,0.00,0.00,0.00,0,2.74,49.91,7.61,0.48,0,No,No
Surface Convection Parameters,PERIMETER_MID_ZN_1_FLOOR,0,0.00,0.00,0.00,0,2.74,49.91,7.61,0.48,0,No,No
Surface Convection Parameters,PERIMETER_MID_ZN_1_CEILING,0,0.00,0.00,0.00,0,2.74,49.91,7.61,0.48,0,No,No
Surface Convection Parameters,PERIMETER_MID_ZN_1_INTERNALMASS_1,0,0.00,0.00,0.00,0,2.74,49.91,7.61,0.48,0,No,No
Surface Convection Parameters,PERIMETER_MID_ZN_4_WALL_WEST,0,395.53,90.32,11.89,0,2.74,33.27,6.94,0.48,3,No,No
Surface Convection Parameters,PERIMETER_MID_ZN_4_WALL_WEST_WINDOW,0,395.53,90.32,11.89,0,2.74,33.27,6.94,0.48,2,No,No
Surface Convection Parameters,PERIMETER_MID_ZN_4_WALL_SOUTH,0,0.00,0.00,0.00,0,2.74,33.27,6.94,0.48,0,No,No
Surface Convection Parameters,iz-PERIMETER_MID_ZN_3_WALL_WEST,0,0.00,0.00,0.00,0,2.74,33.27,6.94,0.48,0,No,No
Surface Convection Parameters,iz-CORE_MID_ZN_5_WALL_WEST,0,0.00,0.00,0.00,0,2.74,33.27,6.94,0.48,0,No,No
Surface Convection Parameters,PERIMETER_MID_ZN_4_FLOOR,0,0.00,0.00,0.00,0,2.74,33.27,6.94,0.48,0,No,No
Surface Convection Parameters,PERIMETER_MID_ZN_4_CEILING,0,0.00,0.00,0.00,0,2.74,33.27,6.94,0.48,0,No,No
Surface Convection Parameters,PERIMETER_MID_ZN_4_INTERNALMASS_1,0,0.00,0.00,0.00,0,2.74,33.27,6.94,0.48,0,No,No
! <ZoneInfiltration Airflow Stats Nominal>,Name,Schedule Name,Zone Name, Zone Floor Area {m2}, # Zone Occupants,Design Volume Flow Rate {m3/s},Volume Flow Rate/Floor Area {m3/s/m2},Volume Flow Rate/Exterior Surface Area {m3/s/m2},ACH - Air Changes per Hour,Equation A - Constant Term Coefficient {},Equation B - Temperature Term Coefficient {1/C},Equation C - Velocity Term Coefficient {s/m}, Equation D - Velocity Squared Term Coefficient {s2/m2}
 ZoneInfiltration Airflow Stats Nominal, PERIMETER_TOP_ZN_3_INFILTRATION,INFIL_SCH_PNNL,PERIMETER_TOP_ZN_3,207.34,11.2,7.790E-002,3.757E-004,5.690E-004,0.493,0.000,0.000,0.224,0.000
 ZoneInfiltration Airflow Stats Nominal, PERIMETER_TOP_ZN_2_INFILTRATION,INFIL_SCH_PNNL,PERIMETER_TOP_ZN_2,131.26,7.1,5.193E-002,3.956E-004,5.690E-004,0.519,0.000,0.000,0.224,0.000
 ZoneInfiltration Airflow Stats Nominal, PERIMETER_TOP_ZN_1_INFILTRATION,INFIL_SCH_PNNL,PERIMETER_TOP_ZN_1,207.34,11.2,7.790E-002,3.757E-004,5.690E-004,0.493,0.000,0.000,0.224,0.000
 ZoneInfiltration Airflow Stats Nominal, PERIMETER_TOP_ZN_4_INFILTRATION,INFIL_SCH_PNNL,PERIMETER_TOP_ZN_4,131.25,7.1,5.193E-002,3.957E-004,5.690E-004,0.519,0.000,0.000,0.224,0.000
 ZoneInfiltration Airflow Stats Nominal, PERIMETER_BOT_ZN_3_INFILTRATION,INFIL_SCH_PNNL,PERIMETER_BOT_ZN_3,207.34,11.2,8.012E-002,3.864E-004,5.690E-004,0.507,0.000,0.000,0.224,0.000
 ZoneInfiltration Airflow Stats Nominal, PERIMETER_BOT_ZN_2_INFILTRATION,INFIL_SCH_PNNL,PERIMETER_BOT_ZN_2,131.26,7.1,5.304E-002,4.041E-004,5.690E-004,0.530,0.000,0.000,0.224,0.000
 ZoneInfiltration Airflow Stats Nominal, PERIMETER_BOT_ZN_1_INFILTRATION,INFIL_SCH_PNNL,PERIMETER_BOT_ZN_1,207.34,11.2,8.012E-002,3.864E-004,5.690E-004,0.507,0.000,0.000,0.224,0.000
 ZoneInfiltration Airflow Stats Nominal, PERIMETER_BOT_ZN_1_DOOR_INFILTRATION,INFIL_DOOR_OPENING_SCH,PERIMETER_BOT_ZN_1,207.34,11.2,0.679,3.273E-003,4.819E-003,4.296,1.000,0.000,0.000,0.000
 ZoneInfiltration Airflow Stats Nominal, PERIMETER_BOT_ZN_4_INFILTRATION,INFIL_SCH_PNNL,PERIMETER_BOT_ZN_4,131.25,7.1,5.304E-002,4.041E-004,5.690E-004,0.530,0.000,0.000,0.224,0.000
 ZoneInfiltration Airflow Stats Nominal, PERIMETER_MID_ZN_3_INFILTRATION,INFIL_SCH_PNNL,PERIMETER_MID_ZN_3,207.34,11.2,7.790E-002,3.757E-004,5.690E-004,0.493,0.000,0.000,0.224,0.000
 ZoneInfiltration Airflow Stats Nominal, PERIMETER_MID_ZN_2_INFILTRATION,INFIL_SCH_PNNL,PERIMETER_MID_ZN_2,131.26,7.1,5.193E-002,3.956E-004,5.690E-004,0.519,0.000,0.000,0.224,0.000
 ZoneInfiltration Airflow Stats Nominal, PERIMETER_MID_ZN_1_INFILTRATION,INFIL_SCH_PNNL,PERIMETER_MID_ZN_1,207.34,11.2,7.790E-002,3.757E-004,5.690E-004,0.493,0.000,0.000,0.224,0.000
 ZoneInfiltration Airflow Stats Nominal, PERIMETER_MID_ZN_4_INFILTRATION,INFIL_SCH_PNNL,PERIMETER_MID_ZN_4,131.25,7.1,5.193E-002,3.957E-004,5.690E-004,0.519,0.000,0.000,0.224,0.000
 ZoneInfiltration Airflow Stats Nominal, FIRSTFLOOR_PLENUM_INFILTRATION,INFIL_SCH_PNNL,FIRSTFLOOR_PLENUM,1660.73,0.0,0.115,6.949E-005,5.690E-004,0.205,0.000,0.000,0.224,0.000
 ZoneInfiltration Airflow Stats Nominal, MIDFLOOR_PLENUM_INFILTRATION,INFIL_SCH_PNNL,MIDFLOOR_PLENUM,1660.73,0.0,0.115,6.949E-005,5.690E-004,0.205,0.000,0.000,0.224,0.000
 ZoneInfiltration Airflow Stats Nominal, TOPFLOOR_PLENUM_INFILTRATION,INFIL_SCH_PNNL,TOPFLOOR_PLENUM,1660.73,0.0,0.115,6.949E-005,6.193E-005,0.205,0.000,0.000,0.224,0.000
! <AirFlow Model>, Simple
 AirFlow Model, Simple
! <RoomAir Model>, Zone Name, Mixing/Mundt/UCSDDV/UCSDCV/UCSDUFI/UCSDUFE/User Defined
RoomAir Model,CORE_BOTTOM,Mixing/Well-Stirred
RoomAir Model,TOPFLOOR_PLENUM,Mixing/Well-Stirred
RoomAir Model,MIDFLOOR_PLENUM,Mixing/Well-Stirred
RoomAir Model,FIRSTFLOOR_PLENUM,Mixing/Well-Stirred
RoomAir Model,CORE_MID,Mixing/Well-Stirred
RoomAir Model,CORE_TOP,Mixing/Well-Stirred
RoomAir Model,PERIMETER_TOP_ZN_3,Mixing/Well-Stirred
RoomAir Model,PERIMETER_TOP_ZN_2,Mixing/Well-Stirred
RoomAir Model,PERIMETER_TOP_ZN_1,Mixing/Well-Stirred
RoomAir Model,PERIMETER_TOP_ZN_4,Mixing/Well-Stirred
RoomAir Model,PERIMETER_BOT_ZN_3,Mixing/Well-Stirred
RoomAir Model,PERIMETER_BOT_ZN_2,Mixing/Well-Stirred
RoomAir Model,PERIMETER_BOT_ZN_1,Mixing/Well-Stirred
RoomAir Model,PERIMETER_BOT_ZN_4,Mixing/Well-Stirred
RoomAir Model,PERIMETER_MID_ZN_3,Mixing/Well-Stirred
RoomAir Model,PERIMETER_MID_ZN_2,Mixing/Well-Stirred
RoomAir Model,PERIMETER_MID_ZN_1,Mixing/Well-Stirred
RoomAir Model,PERIMETER_MID_ZN_4,Mixing/Well-Stirred
! <AirflowNetwork Model:Control>, No Multizone or Distribution/Multizone with Distribution/Multizone without Distribution/Multizone with Distribution only during Fan Operation
AirflowNetwork Model:Control,NoMultizoneOrDistribution
! <Zone Volume Capacitance Multiplier>, Sensible Heat Capacity Multiplier, Moisture Capacity Multiplier, Carbon Dioxide Capacity Multiplier, Generic Contaminant Capacity Multiplier
Zone Volume Capacitance Multiplier,   1.000 ,   1.000,   1.000,   1.000
! <Load Timesteps in Zone Design Calculation Averaging Window>, Value
 Load Timesteps in Zone Design Calculation Averaging Window,    6
! <Heating Sizing Factor Information>, Sizing Factor ID, Value
 Heating Sizing Factor Information, Global,   1.0000    
! <Cooling Sizing Factor Information>, Sizing Factor ID, Value
 Cooling Sizing Factor Information, Global,   1.0000    
! <Sky Daylight Factors>, MonthAndDay, Zone Name, Window Name, Daylight Fac: Ref Pt #1, Daylight Fac: Ref Pt #2
 Clear Sky Daylight Factors,12/21,PERIMETER_TOP_ZN_3,PERIMETER_TOP_ZN_3_WALL_NORTH_WINDOW,3.1533E-002,2.0620E-002
 Clear Turbid Sky Daylight Factors,12/21,PERIMETER_TOP_ZN_3,PERIMETER_TOP_ZN_3_WALL_NORTH_WINDOW,2.4856E-002,1.6255E-002
 Intermediate Sky Daylight Factors,12/21,PERIMETER_TOP_ZN_3,PERIMETER_TOP_ZN_3_WALL_NORTH_WINDOW,2.3092E-002,1.2200E-002
 Overcast Sky Daylight Factors,12/21,PERIMETER_TOP_ZN_3,PERIMETER_TOP_ZN_3_WALL_NORTH_WINDOW,3.6528E-002,1.7063E-002
 Clear Sky Daylight Factors,12/21,PERIMETER_TOP_ZN_2,PERIMETER_TOP_ZN_2_WALL_EAST_WINDOW,4.1752E-002,2.4565E-002
 Clear Turbid Sky Daylight Factors,12/21,PERIMETER_TOP_ZN_2,PERIMETER_TOP_ZN_2_WALL_EAST_WINDOW,3.7762E-002,2.1857E-002
 Intermediate Sky Daylight Factors,12/21,PERIMETER_TOP_ZN_2,PERIMETER_TOP_ZN_2_WALL_EAST_WINDOW,4.1488E-002,2.0871E-002
 Overcast Sky Daylight Factors,12/21,PERIMETER_TOP_ZN_2,PERIMETER_TOP_ZN_2_WALL_EAST_WINDOW,3.6921E-002,1.7326E-002
 Clear Sky Daylight Factors,12/21,PERIMETER_TOP_ZN_1,PERIMETER_TOP_ZN_1_WALL_SOUTH_WINDOW,0.1050,6.0265E-002
 Clear Turbid Sky Daylight Factors,12/21,PERIMETER_TOP_ZN_1,PERIMETER_TOP_ZN_1_WALL_SOUTH_WINDOW,0.1157,6.5746E-002
 Intermediate Sky Daylight Factors,12/21,PERIMETER_TOP_ZN_1,PERIMETER_TOP_ZN_1_WALL_SOUTH_WINDOW,8.3290E-002,4.0315E-002
 Overcast Sky Daylight Factors,12/21,PERIMETER_TOP_ZN_1,PERIMETER_TOP_ZN_1_WALL_SOUTH_WINDOW,3.6528E-002,1.7063E-002
 Clear Sky Daylight Factors,12/21,PERIMETER_TOP_ZN_4,PERIMETER_TOP_ZN_4_WALL_WEST_WINDOW,4.6084E-002,2.6554E-002
 Clear Turbid Sky Daylight Factors,12/21,PERIMETER_TOP_ZN_4,PERIMETER_TOP_ZN_4_WALL_WEST_WINDOW,4.3057E-002,2.4294E-002
 Intermediate Sky Daylight Factors,12/21,PERIMETER_TOP_ZN_4,PERIMETER_TOP_ZN_4_WALL_WEST_WINDOW,4.5414E-002,2.2645E-002
 Overcast Sky Daylight Factors,12/21,PERIMETER_TOP_ZN_4,PERIMETER_TOP_ZN_4_WALL_WEST_WINDOW,3.6922E-002,1.7327E-002
 Clear Sky Daylight Factors,12/21,PERIMETER_BOT_ZN_3,PERIMETER_BOT_ZN_3_WALL_NORTH_WINDOW1,2.9730E-003,3.0105E-003
 Clear Turbid Sky Daylight Factors,12/21,PERIMETER_BOT_ZN_3,PERIMETER_BOT_ZN_3_WALL_NORTH_WINDOW1,2.4983E-003,2.5276E-003
 Intermediate Sky Daylight Factors,12/21,PERIMETER_BOT_ZN_3,PERIMETER_BOT_ZN_3_WALL_NORTH_WINDOW1,2.1822E-003,2.2015E-003
 Overcast Sky Daylight Factors,12/21,PERIMETER_BOT_ZN_3,PERIMETER_BOT_ZN_3_WALL_NORTH_WINDOW1,2.9283E-003,2.9447E-003
 Clear Sky Daylight Factors,12/21,PERIMETER_BOT_ZN_3,PERIMETER_BOT_ZN_3_WALL_NORTH_WINDOW2,2.7494E-002,1.5654E-002
 Clear Turbid Sky Daylight Factors,12/21,PERIMETER_BOT_ZN_3,PERIMETER_BOT_ZN_3_WALL_NORTH_WINDOW2,2.1251E-002,1.1962E-002
 Intermediate Sky Daylight Factors,12/21,PERIMETER_BOT_ZN_3,PERIMETER_BOT_ZN_3_WALL_NORTH_WINDOW2,1.9505E-002,8.2623E-003
 Overcast Sky Daylight Factors,12/21,PERIMETER_BOT_ZN_3,PERIMETER_BOT_ZN_3_WALL_NORTH_WINDOW2,3.1993E-002,1.1988E-002
 Clear Sky Daylight Factors,12/21,PERIMETER_BOT_ZN_3,PERIMETER_BOT_ZN_3_WALL_NORTH_WINDOW3,2.9735E-003,3.0108E-003
 Clear Turbid Sky Daylight Factors,12/21,PERIMETER_BOT_ZN_3,PERIMETER_BOT_ZN_3_WALL_NORTH_WINDOW3,2.4988E-003,2.5285E-003
 Intermediate Sky Daylight Factors,12/21,PERIMETER_BOT_ZN_3,PERIMETER_BOT_ZN_3_WALL_NORTH_WINDOW3,2.1831E-003,2.2043E-003
 Overcast Sky Daylight Factors,12/21,PERIMETER_BOT_ZN_3,PERIMETER_BOT_ZN_3_WALL_NORTH_WINDOW3,2.9285E-003,2.9449E-003
 Clear Sky Daylight Factors,12/21,PERIMETER_BOT_ZN_2,PERIMETER_BOT_ZN_2_WALL_EAST_WINDOW1,4.3149E-002,2.5359E-002
 Clear Turbid Sky Daylight Factors,12/21,PERIMETER_BOT_ZN_2,PERIMETER_BOT_ZN_2_WALL_EAST_WINDOW1,3.8939E-002,2.2522E-002
 Intermediate Sky Daylight Factors,12/21,PERIMETER_BOT_ZN_2,PERIMETER_BOT_ZN_2_WALL_EAST_WINDOW1,4.2452E-002,2.1440E-002
 Overcast Sky Daylight Factors,12/21,PERIMETER_BOT_ZN_2,PERIMETER_BOT_ZN_2_WALL_EAST_WINDOW1,3.7631E-002,1.7756E-002
 Clear Sky Daylight Factors,12/21,PERIMETER_BOT_ZN_2,PERIMETER_BOT_ZN_2_WALL_EAST_WINDOW2,4.0841E-004,4.1009E-004
 Clear Turbid Sky Daylight Factors,12/21,PERIMETER_BOT_ZN_2,PERIMETER_BOT_ZN_2_WALL_EAST_WINDOW2,3.7609E-004,3.7729E-004
 Intermediate Sky Daylight Factors,12/21,PERIMETER_BOT_ZN_2,PERIMETER_BOT_ZN_2_WALL_EAST_WINDOW2,3.7390E-004,3.7430E-004
 Overcast Sky Daylight Factors,12/21,PERIMETER_BOT_ZN_2,PERIMETER_BOT_ZN_2_WALL_EAST_WINDOW2,3.4185E-004,3.4242E-004
 Clear Sky Daylight Factors,12/21,PERIMETER_BOT_ZN_1,PERIMETER_BOT_ZN_1_WALL_SOUTH_WINDOW1,7.3202E-003,7.3670E-003
 Clear Turbid Sky Daylight Factors,12/21,PERIMETER_BOT_ZN_1,PERIMETER_BOT_ZN_1_WALL_SOUTH_WINDOW1,7.9096E-003,7.9504E-003
 Intermediate Sky Daylight Factors,12/21,PERIMETER_BOT_ZN_1,PERIMETER_BOT_ZN_1_WALL_SOUTH_WINDOW1,5.4577E-003,5.4900E-003
 Overcast Sky Daylight Factors,12/21,PERIMETER_BOT_ZN_1,PERIMETER_BOT_ZN_1_WALL_SOUTH_WINDOW1,2.9285E-003,2.9449E-003
 Clear Sky Daylight Factors,12/21,PERIMETER_BOT_ZN_1,PERIMETER_BOT_ZN_1_WALL_SOUTH_WINDOW2,0.1050,4.9007E-002
 Clear Turbid Sky Daylight Factors,12/21,PERIMETER_BOT_ZN_1,PERIMETER_BOT_ZN_1_WALL_SOUTH_WINDOW2,0.1177,5.3646E-002
 Intermediate Sky Daylight Factors,12/21,PERIMETER_BOT_ZN_1,PERIMETER_BOT_ZN_1_WALL_SOUTH_WINDOW2,7.8090E-002,3.1490E-002
 Overcast Sky Daylight Factors,12/21,PERIMETER_BOT_ZN_1,PERIMETER_BOT_ZN_1_WALL_SOUTH_WINDOW2,3.1993E-002,1.1988E-002
 Clear Sky Daylight Factors,12/21,PERIMETER_BOT_ZN_1,PERIMETER_BOT_ZN_1_WALL_SOUTH_WINDOW3,7.3188E-003,7.3616E-003
 Clear Turbid Sky Daylight Factors,12/21,PERIMETER_BOT_ZN_1,PERIMETER_BOT_ZN_1_WALL_SOUTH_WINDOW3,7.9081E-003,7.9445E-003
 Intermediate Sky Daylight Factors,12/21,PERIMETER_BOT_ZN_1,PERIMETER_BOT_ZN_1_WALL_SOUTH_WINDOW3,5.4564E-003,5.4857E-003
 Overcast Sky Daylight Factors,12/21,PERIMETER_BOT_ZN_1,PERIMETER_BOT_ZN_1_WALL_SOUTH_WINDOW3,2.9283E-003,2.9447E-003
 Clear Sky Daylight Factors,12/21,PERIMETER_BOT_ZN_4,PERIMETER_BOT_ZN_4_WALL_WEST_WINDOW1,4.7615E-002,2.7430E-002
 Clear Turbid Sky Daylight Factors,12/21,PERIMETER_BOT_ZN_4,PERIMETER_BOT_ZN_4_WALL_WEST_WINDOW1,4.4401E-002,2.5060E-002
 Intermediate Sky Daylight Factors,12/21,PERIMETER_BOT_ZN_4,PERIMETER_BOT_ZN_4_WALL_WEST_WINDOW1,4.6493E-002,2.3288E-002
 Overcast Sky Daylight Factors,12/21,PERIMETER_BOT_ZN_4,PERIMETER_BOT_ZN_4_WALL_WEST_WINDOW1,3.7631E-002,1.7757E-002
 Clear Sky Daylight Factors,12/21,PERIMETER_BOT_ZN_4,PERIMETER_BOT_ZN_4_WALL_WEST_WINDOW2,4.3874E-004,4.4323E-004
 Clear Turbid Sky Daylight Factors,12/21,PERIMETER_BOT_ZN_4,PERIMETER_BOT_ZN_4_WALL_WEST_WINDOW2,4.1350E-004,4.1831E-004
 Intermediate Sky Daylight Factors,12/21,PERIMETER_BOT_ZN_4,PERIMETER_BOT_ZN_4_WALL_WEST_WINDOW2,3.9969E-004,4.0170E-004
 Overcast Sky Daylight Factors,12/21,PERIMETER_BOT_ZN_4,PERIMETER_BOT_ZN_4_WALL_WEST_WINDOW2,3.4187E-004,3.4243E-004
 Clear Sky Daylight Factors,12/21,PERIMETER_MID_ZN_3,PERIMETER_MID_ZN_3_WALL_NORTH_WINDOW,3.1533E-002,2.0621E-002
 Clear Turbid Sky Daylight Factors,12/21,PERIMETER_MID_ZN_3,PERIMETER_MID_ZN_3_WALL_NORTH_WINDOW,2.4856E-002,1.6256E-002
 Intermediate Sky Daylight Factors,12/21,PERIMETER_MID_ZN_3,PERIMETER_MID_ZN_3_WALL_NORTH_WINDOW,2.3094E-002,1.2201E-002
 Overcast Sky Daylight Factors,12/21,PERIMETER_MID_ZN_3,PERIMETER_MID_ZN_3_WALL_NORTH_WINDOW,3.6531E-002,1.7065E-002
 Clear Sky Daylight Factors,12/21,PERIMETER_MID_ZN_2,PERIMETER_MID_ZN_2_WALL_EAST_WINDOW,4.1752E-002,2.4567E-002
 Clear Turbid Sky Daylight Factors,12/21,PERIMETER_MID_ZN_2,PERIMETER_MID_ZN_2_WALL_EAST_WINDOW,3.7762E-002,2.1859E-002
 Intermediate Sky Daylight Factors,12/21,PERIMETER_MID_ZN_2,PERIMETER_MID_ZN_2_WALL_EAST_WINDOW,4.1491E-002,2.0873E-002
 Overcast Sky Daylight Factors,12/21,PERIMETER_MID_ZN_2,PERIMETER_MID_ZN_2_WALL_EAST_WINDOW,3.6925E-002,1.7328E-002
 Clear Sky Daylight Factors,12/21,PERIMETER_MID_ZN_1,PERIMETER_MID_ZN_1_WALL_SOUTH_WINDOW,0.1050,6.0271E-002
 Clear Turbid Sky Daylight Factors,12/21,PERIMETER_MID_ZN_1,PERIMETER_MID_ZN_1_WALL_SOUTH_WINDOW,0.1157,6.5753E-002
 Intermediate Sky Daylight Factors,12/21,PERIMETER_MID_ZN_1,PERIMETER_MID_ZN_1_WALL_SOUTH_WINDOW,8.3295E-002,4.0320E-002
 Overcast Sky Daylight Factors,12/21,PERIMETER_MID_ZN_1,PERIMETER_MID_ZN_1_WALL_SOUTH_WINDOW,3.6531E-002,1.7065E-002
 Clear Sky Daylight Factors,12/21,PERIMETER_MID_ZN_4,PERIMETER_MID_ZN_4_WALL_WEST_WINDOW,4.6084E-002,2.6555E-002
 Clear Turbid Sky Daylight Factors,12/21,PERIMETER_MID_ZN_4,PERIMETER_MID_ZN_4_WALL_WEST_WINDOW,4.3058E-002,2.4295E-002
 Intermediate Sky Daylight Factors,12/21,PERIMETER_MID_ZN_4,PERIMETER_MID_ZN_4_WALL_WEST_WINDOW,4.5417E-002,2.2648E-002
 Overcast Sky Daylight Factors,12/21,PERIMETER_MID_ZN_4,PERIMETER_MID_ZN_4_WALL_WEST_WINDOW,3.6925E-002,1.7329E-002
! <Zone Sizing Information>, Zone Name, Load Type, Calc Des Load {W}, User Des Load {W}, Calc Des Air Flow Rate {m3/s}, User Des Air Flow Rate {m3/s}, Design Day Name, Date/Time of Peak, Temperature at Peak {C}, Humidity Ratio at Peak {kgWater/kgDryAir}, Floor Area {m2}, # Occupants, Calc Outdoor Air Flow Rate {m3/s}, Calc DOAS Heat Addition Rate {W}
 Zone Sizing Information, CORE_BOTTOM, Cooling, 45204.94302, 45204.94302, 3.32000, 3.32000, SAN.DIEGO-BROWN.FIELD.MUNI.AP_CA_USA ANN CLG .4% CONDNS DB=>MWB, 8/21 08:00:00, 24.71400, 8.20219E-003, 983.53657, 52.93867, 0.42466, 0.00000
 Zone Sizing Information, CORE_BOTTOM, Heating, 5718.81100, 5718.81100, 0.24467, 0.42466, SAN.DIEGO-BROWN.FIELD.MUNI.AP_CA_USA ANN HTG 99.6% CONDNS DB, 12/21 08:00:00, 3.80000, 5.05843E-003, 983.53657, 52.93867, 0.42466, 0.00000
 Zone Sizing Information, CORE_MID, Cooling, 24342.38024, 24342.38024, 1.78372, 1.78372, SAN.DIEGO-BROWN.FIELD.MUNI.AP_CA_USA ANN CLG .4% CONDNS DB=>MWB, 8/21 08:00:00, 24.71400, 8.20219E-003, 983.53657, 52.93867, 0.42466, 0.00000
 Zone Sizing Information, CORE_MID, Heating, 8440.08109, 8440.08109, 0.36141, 0.42466, SAN.DIEGO-BROWN.FIELD.MUNI.AP_CA_USA ANN HTG 99.6% CONDNS DB, 12/21 08:00:00, 3.80000, 5.05843E-003, 983.53657, 52.93867, 0.42466, 0.00000
 Zone Sizing Information, CORE_TOP, Cooling, 24205.96788, 24205.96788, 1.79203, 1.79203, SAN.DIEGO-BROWN.FIELD.MUNI.AP_CA_USA ANN CLG .4% CONDNS DB=>MWB, 8/21 14:40:00, 31.30000, 8.20219E-003, 983.53657, 52.93867, 0.42466, 0.00000
 Zone Sizing Information, CORE_TOP, Heating, 16301.17940, 16301.17940, 0.70352, 0.70352, SAN.DIEGO-BROWN.FIELD.MUNI.AP_CA_USA ANN HTG 99.6% CONDNS DB, 12/21 08:00:00, 3.80000, 5.05843E-003, 983.53657, 52.93867, 0.42466, 0.00000
 Zone Sizing Information, PERIMETER_TOP_ZN_3, Cooling, 6595.42097, 6595.42097, 0.48827, 0.48827, SAN.DIEGO-BROWN.FIELD.MUNI.AP_CA_USA ANN CLG .4% CONDNS DB=>MWB, 8/21 14:40:00, 31.30000, 8.20219E-003, 207.33814, 11.15994, 8.95230E-002, 0.00000
 Zone Sizing Information, PERIMETER_TOP_ZN_3, Heating, 6832.43082, 6832.43082, 0.29623, 0.29623, SAN.DIEGO-BROWN.FIELD.MUNI.AP_CA_USA ANN HTG 99.6% CONDNS DB, 12/21 08:00:00, 3.80000, 5.05843E-003, 207.33814, 11.15994, 8.95230E-002, 0.00000
 Zone Sizing Information, PERIMETER_TOP_ZN_2, Cooling, 7638.49873, 7638.49873, 0.56549, 0.56549, SAN.DIEGO-BROWN.FIELD.MUNI.AP_CA_USA ANN CLG .4% CONDNS DB=>MWB, 8/21 08:20:00, 25.27767, 8.20219E-003, 131.26219, 7.06516, 5.66755E-002, 0.00000
 Zone Sizing Information, PERIMETER_TOP_ZN_2, Heating, 4524.54754, 4524.54754, 0.19620, 0.19620, SAN.DIEGO-BROWN.FIELD.MUNI.AP_CA_USA ANN HTG 99.6% CONDNS DB, 12/21 08:00:00, 3.80000, 5.05843E-003, 131.26219, 7.06516, 5.66755E-002, 0.00000
 Zone Sizing Information, PERIMETER_TOP_ZN_1, Cooling, 8109.38163, 8109.38163, 0.60035, 0.60035, SAN.DIEGO-BROWN.FIELD.MUNI.AP_CA_USA ANN CLG .4% CONDNS DB=>MWB, 8/21 13:10:00, 30.92917, 8.20219E-003, 207.33814, 11.15994, 8.95230E-002, 0.00000
 Zone Sizing Information, PERIMETER_TOP_ZN_1, Heating, 6916.92137, 6916.92137, 0.29991, 0.29991, SAN.DIEGO-BROWN.FIELD.MUNI.AP_CA_USA ANN HTG 99.6% CONDNS DB, 12/21 08:00:00, 3.80000, 5.05843E-003, 207.33814, 11.15994, 8.95230E-002, 0.00000
 Zone Sizing Information, PERIMETER_TOP_ZN_4, Cooling, 8402.71292, 8402.71292, 0.62206, 0.62206, SAN.DIEGO-BROWN.FIELD.MUNI.AP_CA_USA ANN CLG .4% CONDNS DB=>MWB, 8/21 16:30:00, 30.41000, 8.20219E-003, 131.25358, 7.06470, 5.66718E-002, 0.00000
 Zone Sizing Information, PERIMETER_TOP_ZN_4, Heating, 4507.63722, 4507.63722, 0.19547, 0.19547, SAN.DIEGO-BROWN.FIELD.MUNI.AP_CA_USA ANN HTG 99.6% CONDNS DB, 12/21 08:00:00, 3.80000, 5.05843E-003, 131.25358, 7.06470, 5.66718E-002, 0.00000
 Zone Sizing Information, PERIMETER_BOT_ZN_3, Cooling, 5369.78215, 5369.78215, 0.39754, 0.39754, SAN.DIEGO-BROWN.FIELD.MUNI.AP_CA_USA ANN CLG .4% CONDNS DB=>MWB, 8/21 14:10:00, 31.30000, 8.20219E-003, 207.33814, 11.15994, 8.95230E-002, 0.00000
 Zone Sizing Information, PERIMETER_BOT_ZN_3, Heating, 4714.05503, 4714.05503, 0.20402, 0.20402, SAN.DIEGO-BROWN.FIELD.MUNI.AP_CA_USA ANN HTG 99.6% CONDNS DB, 12/21 08:00:00, 3.80000, 5.05843E-003, 207.33814, 11.15994, 8.95230E-002, 0.00000
 Zone Sizing Information, PERIMETER_BOT_ZN_2, Cooling, 6638.45045, 6638.45045, 0.49145, 0.49145, SAN.DIEGO-BROWN.FIELD.MUNI.AP_CA_USA ANN CLG .4% CONDNS DB=>MWB, 8/21 08:20:00, 25.27767, 8.20219E-003, 131.26219, 7.06516, 5.66755E-002, 0.00000
 Zone Sizing Information, PERIMETER_BOT_ZN_2, Heating, 3181.23381, 3181.23381, 0.13774, 0.13774, SAN.DIEGO-BROWN.FIELD.MUNI.AP_CA_USA ANN HTG 99.6% CONDNS DB, 12/21 08:00:00, 3.80000, 5.05843E-003, 131.26219, 7.06516, 5.66755E-002, 0.00000
 Zone Sizing Information, PERIMETER_BOT_ZN_1, Cooling, 6760.39282, 6760.39282, 0.50048, 0.50048, SAN.DIEGO-BROWN.FIELD.MUNI.AP_CA_USA ANN CLG .4% CONDNS DB=>MWB, 8/21 13:10:00, 30.92917, 8.20219E-003, 207.33814, 11.15994, 8.95230E-002, 0.00000
 Zone Sizing Information, PERIMETER_BOT_ZN_1, Heating, 4796.76507, 4796.76507, 0.20762, 0.20762, SAN.DIEGO-BROWN.FIELD.MUNI.AP_CA_USA ANN HTG 99.6% CONDNS DB, 12/21 08:00:00, 3.80000, 5.05843E-003, 207.33814, 11.15994, 8.95230E-002, 0.00000
 Zone Sizing Information, PERIMETER_BOT_ZN_4, Cooling, 6955.45815, 6955.45815, 0.51492, 0.51492, SAN.DIEGO-BROWN.FIELD.MUNI.AP_CA_USA ANN CLG .4% CONDNS DB=>MWB, 8/21 17:00:00, 30.05400, 8.20219E-003, 131.25358, 7.06470, 5.66718E-002, 0.00000
 Zone Sizing Information, PERIMETER_BOT_ZN_4, Heating, 3163.86604, 3163.86604, 0.13698, 0.13698, SAN.DIEGO-BROWN.FIELD.MUNI.AP_CA_USA ANN HTG 99.6% CONDNS DB, 12/21 08:00:00, 3.80000, 5.05843E-003, 131.25358, 7.06470, 5.66718E-002, 0.00000
 Zone Sizing Information, PERIMETER_MID_ZN_3, Cooling, 5829.98044, 5829.98044, 0.43160, 0.43160, SAN.DIEGO-BROWN.FIELD.MUNI.AP_CA_USA ANN CLG .4% CONDNS DB=>MWB, 8/21 14:10:00, 31.30000, 8.20219E-003, 207.33814, 11.15994, 8.95230E-002, 0.00000
 Zone Sizing Information, PERIMETER_MID_ZN_3, Heating, 4975.26452, 4975.26452, 0.21538, 0.21538, SAN.DIEGO-BROWN.FIELD.MUNI.AP_CA_USA ANN HTG 99.6% CONDNS DB, 12/21 08:00:00, 3.80000, 5.05843E-003, 207.33814, 11.15994, 8.95230E-002, 0.00000
[...]
Zone Surfaces,PERIMETER_BOT_ZN_1,12
HeatTransfer Surface,PERIMETER_BOT_ZN_1_WALL_SOUTH,Wall,,CTF - ConductionTransferFunction,NONRES_EXT_WALL,0.468,0.437,,67.75,136.92,67.75,180.00,90.00,49.91,2.74,0.00,ExternalEnvironment,ASHRAETARP,ASHRAETARP,SunExposed,WindExposed,0.50,0.50,0.50,0.50,4
HeatTransfer Surface,PERIMETER_BOT_ZN_1_WALL_SOUTH_WINDOW1,Window,PERIMETER_BOT_ZN_1_WALL_SOUTH,Window5 Detailed Fenestration,WINDOW_U_0.42_SHGC_0.25,N/A,2.387,No,21.75,21.75,21.75,180.00,90.00,15.82,1.37,0.00,ExternalEnvironment,ASHRAETARP,ASHRAETARP,SunExposed,WindExposed,0.50,0.50,0.50,0.50,4
HeatTransfer Surface,PERIMETER_BOT_ZN_1_WALL_SOUTH_WINDOW2,Window,PERIMETER_BOT_ZN_1_WALL_SOUTH,Window5 Detailed Fenestration,WINDOW_U_0.42_SHGC_0.25,N/A,2.387,No,21.75,21.75,21.75,180.00,90.00,15.82,1.37,0.00,ExternalEnvironment,ASHRAETARP,ASHRAETARP,SunExposed,WindExposed,0.50,0.50,0.50,0.50,4
HeatTransfer Surface,PERIMETER_BOT_ZN_1_WALL_SOUTH_WINDOW3,Window,PERIMETER_BOT_ZN_1_WALL_SOUTH,Window5 Detailed Fenestration,WINDOW_U_0.42_SHGC_0.25,N/A,2.387,No,21.75,21.75,21.75,180.00,90.00,15.82,1.37,0.00,ExternalEnvironment,ASHRAETARP,ASHRAETARP,SunExposed,WindExposed,0.50,0.50,0.50,0.50,4
HeatTransfer Surface,PERIMETER_BOT_ZN_1_WALL_SOUTH_DOOR1,Door,PERIMETER_BOT_ZN_1_WALL_SOUTH,CTF - ConductionTransferFunction,SWINGING DOOR_CON,2.101,2.101,,1.95,1.95,1.95,180.00,90.00,0.91,2.13,0.00,ExternalEnvironment,ASHRAETARP,ASHRAETARP,SunExposed,WindExposed,0.50,0.50,0.50,0.50,4
HeatTransfer Surface,PERIMETER_BOT_ZN_1_WALL_SOUTH_DOOR2,Door,PERIMETER_BOT_ZN_1_WALL_SOUTH,CTF - ConductionTransferFunction,SWINGING DOOR_CON,2.101,2.101,,1.95,1.95,1.95,180.00,90.00,0.91,2.13,0.00,ExternalEnvironment,ASHRAETARP,ASHRAETARP,SunExposed,WindExposed,0.50,0.50,0.50,0.50,4
HeatTransfer Surface,PERIMETER_BOT_ZN_1_WALL_EAST,Wall,,CTF - ConductionTransferFunction,INT_WALL,6.299,3.242,,17.74,17.74,17.74,45.00,90.00,6.47,2.74,0.00,iz-PERIMETER_BOT_ZN_1_WALL_EAST,Other/Same Surface Int Conv,ASHRAETARP,NoSun,NoWind,0.50,0.50,0.50,0.50,4
HeatTransfer Surface,iz-PERIMETER_BOT_ZN_4_WALL_SOUTH,Wall,,CTF - ConductionTransferFunction,INT_WALL,6.299,3.242,,17.74,17.74,17.74,315.00,90.00,6.47,2.74,0.00,PERIMETER_BOT_ZN_4_WALL_SOUTH,Other/Same Surface Int Conv,ASHRAETARP,NoSun,NoWind,0.50,0.50,0.50,0.50,4
HeatTransfer Surface,iz-CORE_BOT_ZN_5_WALL_SOUTH,Wall,,CTF - ConductionTransferFunction,INT_WALL,6.299,3.242,,111.82,111.82,111.82,0.00,90.00,40.76,2.74,0.00,CORE_BOT_ZN_5_WALL_SOUTH,Other/Same Surface Int Conv,ASHRAETARP,NoSun,NoWind,0.50,0.50,0.50,0.50,4
HeatTransfer Surface,PERIMETER_BOT_ZN_1_FLOOR,Floor,,CTF - ConductionTransferFunction,PERIMETER_BOT_ZN_1_FLOOR_FFACTOR,0.319,0.296,,207.34,207.34,207.34,180.00,180.00,40.76,6.47,0.00,FCGround,N/A-FCGround,ASHRAETARP,NoSun,NoWind,1.00,0.00,1.00,0.00,4
HeatTransfer Surface,PERIMETER_BOT_ZN_1_CEILING,Roof,,CTF - ConductionTransferFunction,DROPCEILING,4.488,2.432,,207.34,207.34,207.34,0.00,0.00,40.76,6.47,0.00,iz-PERIMETER_BOT_ZN_1_CEILING,Other/Same Surface Int Conv,ASHRAETARP,NoSun,NoWind,0.00,1.00,0.00,1.00,4
HeatTransfer Surface,PERIMETER_BOT_ZN_1_INTERNALMASS_1,Internal Mass,,CTF - ConductionTransferFunction,INTERIORFURNISHINGS,0.800,0.800,,414.67,414.67,414.67,0.00,90.00,414.67,1.00,0.00,PERIMETER_BOT_ZN_1_INTERNALMASS_1,Other/Same Surface Int Conv,ASHRAETARP,NoSun,NoWind,0.00,0.50,1.00,0.00,0
Zone Surfaces,PERIMETER_BOT_ZN_4,10
HeatTransfer Surface,PERIMETER_BOT_ZN_4_WALL_WEST,Wall,,CTF - ConductionTransferFunction,NONRES_EXT_WALL,0.468,0.437,,45.82,91.28,45.82,270.00,90.00,33.27,2.74,0.00,ExternalEnvironment,ASHRAETARP,ASHRAETARP,SunExposed,WindExposed,0.50,0.50,0.50,0.50,4
HeatTransfer Surface,PERIMETER_BOT_ZN_4_WALL_WEST_WINDOW1,Window,PERIMETER_BOT_ZN_4_WALL_WEST,Window5 Detailed Fenestration,WINDOW_U_0.42_SHGC_0.25,N/A,2.387,No,41.85,41.85,41.85,270.00,90.00,30.84,1.36,0.00,ExternalEnvironment,ASHRAETARP,ASHRAETARP,SunExposed,WindExposed,0.50,0.50,0.50,0.50,4
HeatTransfer Surface,PERIMETER_BOT_ZN_4_WALL_WEST_WINDOW2,Window,PERIMETER_BOT_ZN_4_WALL_WEST,Window5 Detailed Fenestration,WINDOW_U_0.42_SHGC_0.25,N/A,2.387,No,1.65,1.65,1.65,270.00,90.00,1.22,1.36,0.00,ExternalEnvironment,ASHRAETARP,ASHRAETARP,SunExposed,WindExposed,0.50,0.50,0.50,0.50,4
HeatTransfer Surface,PERIMETER_BOT_ZN_4_WALL_WEST_DOOR,Door,PERIMETER_BOT_ZN_4_WALL_WEST,CTF - ConductionTransferFunction,SWINGING DOOR_CON,2.101,2.101,,1.95,1.95,1.95,270.00,90.00,0.91,2.13,0.00,ExternalEnvironment,ASHRAETARP,ASHRAETARP,SunExposed,WindExposed,0.50,0.50,0.50,0.50,4
HeatTransfer Surface,PERIMETER_BOT_ZN_4_WALL_SOUTH,Wall,,CTF - ConductionTransferFunction,INT_WALL,6.299,3.242,,17.74,17.74,17.74,135.00,90.00,6.47,2.74,0.00,iz-PERIMETER_BOT_ZN_4_WALL_SOUTH,Other/Same Surface Int Conv,ASHRAETARP,NoSun,NoWind,0.50,0.50,0.50,0.50,4
HeatTransfer Surface,iz-PERIMETER_BOT_ZN_3_WALL_WEST,Wall,,CTF - ConductionTransferFunction,INT_WALL,6.299,3.242,,17.74,17.74,17.74,45.00,90.00,6.47,2.74,0.00,PERIMETER_BOT_ZN_3_WALL_WEST,Other/Same Surface Int Conv,ASHRAETARP,NoSun,NoWind,0.50,0.50,0.50,0.50,4
HeatTransfer Surface,iz-CORE_BOT_ZN_5_WALL_WEST,Wall,,CTF - ConductionTransferFunction,INT_WALL,6.299,3.242,,66.19,66.19,66.19,90.00,90.00,24.13,2.74,0.00,CORE_BOT_ZN_5_WALL_WEST,Other/Same Surface Int Conv,ASHRAETARP,NoSun,NoWind,0.50,0.50,0.50,0.50,4
HeatTransfer Surface,PERIMETER_BOT_ZN_4_FLOOR,Floor,,CTF - ConductionTransferFunction,PERIMETER_BOT_ZN_4_FLOOR_FFACTOR,0.337,0.312,,131.25,131.25,131.25,270.00,180.00,24.13,6.47,0.00,FCGround,N/A-FCGround,ASHRAETARP,NoSun,NoWind,1.00,0.00,1.00,0.00,4
HeatTransfer Surface,PERIMETER_BOT_ZN_4_CEILING,Roof,,CTF - ConductionTransferFunction,DROPCEILING,4.488,2.432,,131.25,131.25,131.25,90.00,0.00,24.13,6.47,0.00,iz-PERIMETER_BOT_ZN_4_CEILING,Other/Same Surface Int Conv,ASHRAETARP,NoSun,NoWind,0.00,1.00,0.00,1.00,4
HeatTransfer Surface,PERIMETER_BOT_ZN_4_INTERNALMASS_1,Internal Mass,,CTF - ConductionTransferFunction,INTERIORFURNISHINGS,0.800,0.800,,262.51,262.51,262.51,0.00,90.00,262.51,1.00,0.00,PERIMETER_BOT_ZN_4_INTERNALMASS_1,Other/Same Surface Int Conv,ASHRAETARP,NoSun,NoWind,0.00,0.50,1.00,0.00,0
Zone Surfaces,PERIMETER_MID_ZN_3,8
HeatTransfer Surface,PERIMETER_MID_ZN_3_WALL_NORTH,Wall,,CTF - ConductionTransferFunction,NONRES_EXT_WALL,0.468,0.437,,71.65,136.92,71.65,0.00,90.00,49.91,2.74,0.00,ExternalEnvironment,ASHRAETARP,ASHRAETARP,SunExposed,WindExposed,0.50,0.50,0.50,0.50,4
HeatTransfer Surface,PERIMETER_MID_ZN_3_WALL_NORTH_WINDOW,Window,PERIMETER_MID_ZN_3_WALL_NORTH,Window5 Detailed Fenestration,WINDOW_U_0.42_SHGC_0.25,N/A,2.387,No,65.26,65.26,65.26,0.00,90.00,49.91,1.31,0.00,ExternalEnvironment,ASHRAETARP,ASHRAETARP,SunExposed,WindExposed,0.50,0.50,0.50,0.50,4
HeatTransfer Surface,PERIMETER_MID_ZN_3_WALL_WEST,Wall,,CTF - ConductionTransferFunction,INT_WALL,6.299,3.242,,17.74,17.74,17.74,225.00,90.00,6.47,2.74,0.00,iz-PERIMETER_MID_ZN_3_WALL_WEST,Other/Same Surface Int Conv,ASHRAETARP,NoSun,NoWind,0.50,0.50,0.50,0.50,4
HeatTransfer Surface,iz-PERIMETER_MID_ZN_2_WALL_NORTH,Wall,,CTF - ConductionTransferFunction,INT_WALL,6.299,3.242,,17.74,17.74,17.74,135.00,90.00,6.47,2.74,0.00,PERIMETER_MID_ZN_2_WALL_NORTH,Other/Same Surface Int Conv,ASHRAETARP,NoSun,NoWind,0.50,0.50,0.50,0.50,4
HeatTransfer Surface,iz-CORE_MID_ZN_5_WALL_NORTH,Wall,,CTF - ConductionTransferFunction,INT_WALL,6.299,3.242,,111.82,111.82,111.82,180.00,90.00,40.76,2.74,0.00,CORE_MID_ZN_5_WALL_NORTH,Other/Same Surface Int Conv,ASHRAETARP,NoSun,NoWind,0.50,0.50,0.50,0.50,4
HeatTransfer Surface,PERIMETER_MID_ZN_3_FLOOR,Floor,,CTF - ConductionTransferFunction,INT_SLAB_FLOOR,3.839,1.986,,207.34,207.34,207.34,0.00,180.00,40.76,6.47,0.00,iz-PERIMETER_MID_ZN_3_FLOOR,Other/Same Surface Int Conv,ASHRAETARP,NoSun,NoWind,1.00,0.00,1.00,0.00,4
HeatTransfer Surface,PERIMETER_MID_ZN_3_CEILING,Roof,,CTF - ConductionTransferFunction,DROPCEILING,4.488,2.432,,207.34,207.34,207.34,180.00,0.00,40.76,6.47,0.00,iz-PERIMETER_MID_ZN_3_CEILING,Other/Same Surface Int Conv,ASHRAETARP,NoSun,NoWind,0.00,1.00,0.00,1.00,4
HeatTransfer Surface,PERIMETER_MID_ZN_3_INTERNALMASS_1,Internal Mass,,CTF - ConductionTransferFunction,INTERIORFURNISHINGS,0.800,0.800,,414.68,414.68,414.68,0.00,90.00,414.68,1.00,0.00,PERIMETER_MID_ZN_3_INTERNALMASS_1,Other/Same Surface Int Conv,ASHRAETARP,NoSun,NoWind,0.00,0.50,1.00,0.00,0
Zone Surfaces,PERIMETER_MID_ZN_2,8
HeatTransfer Surface,PERIMETER_MID_ZN_2_WALL_EAST,Wall,,CTF - ConductionTransferFunction,NONRES_EXT_WALL,0.468,0.437,,47.77,91.28,47.77,90.00,90.00,33.27,2.74,0.00,ExternalEnvironment,ASHRAETARP,ASHRAETARP,SunExposed,WindExposed,0.50,0.50,0.50,0.50,4
HeatTransfer Surface,PERIMETER_MID_ZN_2_WALL_EAST_WINDOW,Window,PERIMETER_MID_ZN_2_WALL_EAST,Window5 Detailed Fenestration,WINDOW_U_0.42_SHGC_0.25,N/A,2.387,No,43.51,43.51,43.51,90.00,90.00,33.27,1.31,0.00,ExternalEnvironment,ASHRAETARP,ASHRAETARP,SunExposed,WindExposed,0.50,0.50,0.50,0.50,4
HeatTransfer Surface,PERIMETER_MID_ZN_2_WALL_NORTH,Wall,,CTF - ConductionTransferFunction,INT_WALL,6.299,3.242,,17.74,17.74,17.74,315.00,90.00,6.47,2.74,0.00,iz-PERIMETER_MID_ZN_2_WALL_NORTH,Other/Same Surface Int Conv,ASHRAETARP,NoSun,NoWind,0.50,0.50,0.50,0.50,4
HeatTransfer Surface,iz-PERIMETER_MID_ZN_1_WALL_EAST,Wall,,CTF - ConductionTransferFunction,INT_WALL,6.299,3.242,,17.74,17.74,17.74,225.00,90.00,6.47,2.74,0.00,PERIMETER_MID_ZN_1_WALL_EAST,Other/Same Surface Int Conv,ASHRAETARP,NoSun,NoWind,0.50,0.50,0.50,0.50,4
HeatTransfer Surface,iz-CORE_MID_ZN_5_WALL_EAST,Wall,,CTF - ConductionTransferFunction,INT_WALL,6.299,3.242,,66.19,66.19,66.19,270.00,90.00,24.13,2.74,0.00,CORE_MID_ZN_5_WALL_EAST,Other/Same Surface Int Conv,ASHRAETARP,NoSun,NoWind,0.50,0.50,0.50,0.50,4
HeatTransfer Surface,PERIMETER_MID_ZN_2_FLOOR,Floor,,CTF - ConductionTransferFunction,INT_SLAB_FLOOR,3.839,1.986,,131.26,131.26,131.26,90.00,180.00,24.13,6.47,0.00,iz-PERIMETER_MID_ZN_2_FLOOR,Other/Same Surface Int Conv,ASHRAETARP,NoSun,NoWind,1.00,0.00,1.00,0.00,4
HeatTransfer Surface,PERIMETER_MID_ZN_2_CEILING,Roof,,CTF - ConductionTransferFunction,DROPCEILING,4.488,2.432,,131.26,131.26,131.26,270.00,0.00,24.13,6.47,0.00,iz-PERIMETER_MID_ZN_2_CEILING,Other/Same Surface Int Conv,ASHRAETARP,NoSun,NoWind,0.00,1.00,0.00,1.00,4
HeatTransfer Surface,PERIMETER_MID_ZN_2_INTERNALMASS_1,Internal Mass,,CTF - ConductionTransferFunction,INTERIORFURNISHINGS,0.800,0.800,,262.51,262.51,262.51,0.00,90.00,262.51,1.00,0.00,PERIMETER_MID_ZN_2_INTERNALMASS_1,Other/Same Surface Int Conv,ASHRAETARP,NoSun,NoWind,0.00,0.50,1.00,0.00,0
Zone Surfaces,PERIMETER_MID_ZN_1,8
HeatTransfer Surface,PERIMETER_MID_ZN_1_WALL_SOUTH,Wall,,CTF - ConductionTransferFunction,NONRES_EXT_WALL,0.468,0.437,,71.65,136.92,71.65,180.00,90.00,49.91,2.74,0.00,ExternalEnvironment,ASHRAETARP,ASHRAETARP,SunExposed,WindExposed,0.50,0.50,0.50,0.50,4
HeatTransfer Surface,PERIMETER_MID_ZN_1_WALL_SOUTH_WINDOW,Window,PERIMETER_MID_ZN_1_WALL_SOUTH,Window5 Detailed Fenestration,WINDOW_U_0.42_SHGC_0.25,N/A,2.387,No,65.26,65.26,65.26,180.00,90.00,49.91,1.31,0.00,ExternalEnvironment,ASHRAETARP,ASHRAETARP,SunExposed,WindExposed,0.50,0.50,0.50,0.50,4
HeatTransfer Surface,PERIMETER_MID_ZN_1_WALL_EAST,Wall,,CTF - ConductionTransferFunction,INT_WALL,6.299,3.242,,17.74,17.74,17.74,45.00,90.00,6.47,2.74,0.00,iz-PERIMETER_MID_ZN_1_WALL_EAST,Other/Same Surface Int Conv,ASHRAETARP,NoSun,NoWind,0.50,0.50,0.50,0.50,4
HeatTransfer Surface,iz-PERIMETER_MID_ZN_4_WALL_SOUTH,Wall,,CTF - ConductionTransferFunction,INT_WALL,6.299,3.242,,17.74,17.74,17.74,315.00,90.00,6.47,2.74,0.00,PERIMETER_MID_ZN_4_WALL_SOUTH,Other/Same Surface Int Conv,ASHRAETARP,NoSun,NoWind,0.50,0.50,0.50,0.50,4
HeatTransfer Surface,iz-CORE_MID_ZN_5_WALL_SOUTH,Wall,,CTF - ConductionTransferFunction,INT_WALL,6.299,3.242,,111.82,111.82,111.82,0.00,90.00,40.76,2.74,0.00,CORE_MID_ZN_5_WALL_SOUTH,Other/Same Surface Int Conv,ASHRAETARP,NoSun,NoWind,0.50,0.50,0.50,0.50,4
HeatTransfer Surface,PERIMETER_MID_ZN_1_FLOOR,Floor,,CTF - ConductionTransferFunction,INT_SLAB_FLOOR,3.839,1.986,,207.34,207.34,207.34,180.00,180.00,40.76,6.47,0.00,iz-PERIMETER_MID_ZN_1_FLOOR,Other/Same Surface Int Conv,ASHRAETARP,NoSun,NoWind,1.00,0.00,1.00,0.00,4
HeatTransfer Surface,PERIMETER_MID_ZN_1_CEILING,Roof,,CTF - ConductionTransferFunction,DROPCEILING,4.488,2.432,,207.34,207.34,207.34,0.00,0.00,40.76,6.47,0.00,iz-PERIMETER_MID_ZN_1_CEILING,Other/Same Surface Int Conv,ASHRAETARP,NoSun,NoWind,0.00,1.00,0.00,1.00,4
HeatTransfer Surface,PERIMETER_MID_ZN_1_INTERNALMASS_1,Internal Mass,,CTF - ConductionTransferFunction,INTERIORFURNISHINGS,0.800,0.800,,414.67,414.67,414.67,0.00,90.00,414.67,1.00,0.00,PERIMETER_MID_ZN_1_INTERNALMASS_1,Other/Same Surface Int Conv,ASHRAETARP,NoSun,NoWind,0.00,0.50,1.00,0.00,0
Zone Surfaces,PERIMETER_MID_ZN_4,8
HeatTransfer Surface,PERIMETER_MID_ZN_4_WALL_WEST,Wall,,CTF - ConductionTransferFunction,NONRES_EXT_WALL,0.468,0.437,,47.77,91.28,47.77,270.00,90.00,33.27,2.74,0.00,ExternalEnvironment,ASHRAETARP,ASHRAETARP,SunExposed,WindExposed,0.50,0.50,0.50,0.50,4
HeatTransfer Surface,PERIMETER_MID_ZN_4_WALL_WEST_WINDOW,Window,PERIMETER_MID_ZN_4_WALL_WEST,Window5 Detailed Fenestration,WINDOW_U_0.42_SHGC_0.25,N/A,2.387,No,43.51,43.51,43.51,270.00,90.00,33.27,1.31,0.00,ExternalEnvironment,ASHRAETARP,ASHRAETARP,SunExposed,WindExposed,0.50,0.50,0.50,0.50,4
HeatTransfer Surface,PERIMETER_MID_ZN_4_WALL_SOUTH,Wall,,CTF - ConductionTransferFunction,INT_WALL,6.299,3.242,,17.74,17.74,17.74,135.00,90.00,6.47,2.74,0.00,iz-PERIMETER_MID_ZN_4_WALL_SOUTH,Other/Same Surface Int Conv,ASHRAETARP,NoSun,NoWind,0.50,0.50,0.50,0.50,4
HeatTransfer Surface,iz-PERIMETER_MID_ZN_3_WALL_WEST,Wall,,CTF - ConductionTransferFunction,INT_WALL,6.299,3.242,,17.74,17.74,17.74,45.00,90.00,6.47,2.74,0.00,PERIMETER_MID_ZN_3_WALL_WEST,Other/Same Surface Int Conv,ASHRAETARP,NoSun,NoWind,0.50,0.50,0.50,0.50,4
HeatTransfer Surface,iz-CORE_MID_ZN_5_WALL_WEST,Wall,,CTF - ConductionTransferFunction,INT_WALL,6.299,3.242,,66.19,66.19,66.19,90.00,90.00,24.13,2.74,0.00,CORE_MID_ZN_5_WALL_WEST,Other/Same Surface Int Conv,ASHRAETARP,NoSun,NoWind,0.50,0.50,0.50,0.50,4
HeatTransfer Surface,PERIMETER_MID_ZN_4_FLOOR,Floor,,CTF - ConductionTransferFunction,INT_SLAB_FLOOR,3.839,1.986,,131.25,131.25,131.25,270.00,180.00,24.13,6.47,0.00,iz-PERIMETER_MID_ZN_4_FLOOR,Other/Same Surface Int Conv,ASHRAETARP,NoSun,NoWind,1.00,0.00,1.00,0.00,4
HeatTransfer Surface,PERIMETER_MID_ZN_4_CEILING,Roof,,CTF - ConductionTransferFunction,DROPCEILING,4.488,2.432,,131.25,131.25,131.25,90.00,0.00,24.13,6.47,0.00,iz-PERIMETER_MID_ZN_4_CEILING,Other/Same Surface Int Conv,ASHRAETARP,NoSun,NoWind,0.00,1.00,0.00,1.00,4
HeatTransfer Surface,PERIMETER_MID_ZN_4_INTERNALMASS_1,Internal Mass,,CTF - ConductionTransferFunction,INTERIORFURNISHINGS,0.800,0.800,,262.51,262.51,262.51,0.00,90.00,262.51,1.00,0.00,PERIMETER_MID_ZN_4_INTERNALMASS_1,Other/Same Surface Int Conv,ASHRAETARP,NoSun,NoWind,0.00,0.50,1.00,0.00,0
! <Environment>,Environment Name,Environment Type, Start Date, End Date, Start DayOfWeek, Duration {#days}, Source:Start DayOfWeek,  Use Daylight Saving, Use Holidays, Apply Weekend Holiday Rule,  Use Rain Values, Use Snow Values
! <Environment:Special Days>, Special Day Name, Special Day Type, Source, Start Date, Duration {#days}
! <Environment:Daylight Saving>, Daylight Saving Indicator, Source, Start Date, End Date
! <Environment:WarmupDays>, NumberofWarmupDays
Environment,RUNPERIOD 1,WeatherFileRunPeriod,01/01/2017,12/31/2017,Sunday,365,Use RunPeriod Specified Day,No,No,No,Yes,Yes
Environment:Daylight Saving,Yes,InputFile,03/12,11/05
Environment:Special Days,NEW YEARS DAY,Holiday,InputFile,01/01,  1
Environment:Special Days,VETERANS DAY,Holiday,InputFile,11/11,  1
Environment:Special Days,CHRISTMAS,Holiday,InputFile,12/25,  1
Environment:Special Days,INDEPENDENCE DAY,Holiday,InputFile,07/04,  1
Environment:Special Days,MLK DAY,Holiday,InputFile,01/16,  1
Environment:Special Days,PRESIDENTS DAY,Holiday,InputFile,02/20,  1
Environment:Special Days,MEMORIAL DAY,Holiday,InputFile,05/29,  1
Environment:Special Days,LABOR DAY,Holiday,InputFile,09/04,  1
Environment:Special Days,COLUMBUS DAY,Holiday,InputFile,10/09,  1
Environment:Special Days,THANKSGIVING,Holiday,InputFile,11/23,  1
Environment:WarmupDays,  6
! <Tabular Report>,Style,Unit Conversion
Tabular Report,Commaandhtml,commaandhtml
! <Warmup Convergence Information>,Zone Name,Environment Type/Name,Average Warmup Temperature Difference {deltaC},Std Dev Warmup Temperature Difference {deltaC},Max Temperature Pass/Fail Convergence,Min Temperature Pass/Fail Convergence,Average Warmup Load Difference {W},Std Dev Warmup Load Difference {W},Heating Load Pass/Fail Convergence,Cooling Load Pass/Fail Convergence
 Warmup Convergence Information,CORE_BOTTOM,RunPeriod: RUNPERIOD 1,8.4107007328E-003,1.4291927265E-002,Pass,Pass,0.0000000000,0.0000000000,Pass,Pass
 Warmup Convergence Information,TOPFLOOR_PLENUM,RunPeriod: RUNPERIOD 1,3.9932614033E-002,3.6861628598E-002,Pass,Pass,0.0000000000,0.0000000000,Pass,Pass
 Warmup Convergence Information,MIDFLOOR_PLENUM,RunPeriod: RUNPERIOD 1,8.8571343443E-003,6.3909993056E-003,Pass,Pass,0.0000000000,0.0000000000,Pass,Pass
 Warmup Convergence Information,FIRSTFLOOR_PLENUM,RunPeriod: RUNPERIOD 1,7.4113526034E-003,5.3285384332E-003,Pass,Pass,0.0000000000,0.0000000000,Pass,Pass
 Warmup Convergence Information,CORE_MID,RunPeriod: RUNPERIOD 1,6.2125636979E-003,5.6472033478E-003,Pass,Pass,0.0000000000,0.0000000000,Pass,Pass
 Warmup Convergence Information,CORE_TOP,RunPeriod: RUNPERIOD 1,1.5698772261E-002,9.8633833210E-003,Pass,Pass,0.0000000000,0.0000000000,Pass,Pass
 Warmup Convergence Information,PERIMETER_TOP_ZN_3,RunPeriod: RUNPERIOD 1,2.6245458216E-002,1.9358001203E-002,Pass,Pass,0.0000000000,0.0000000000,Pass,Pass
 Warmup Convergence Information,PERIMETER_TOP_ZN_2,RunPeriod: RUNPERIOD 1,5.3474807146E-002,8.6969544469E-002,Pass,Pass,0.0000000000,0.0000000000,Pass,Pass
 Warmup Convergence Information,PERIMETER_TOP_ZN_1,RunPeriod: RUNPERIOD 1,6.6809287377E-002,7.0052706618E-002,Pass,Pass,0.0000000000,0.0000000000,Pass,Pass
 Warmup Convergence Information,PERIMETER_TOP_ZN_4,RunPeriod: RUNPERIOD 1,3.9545386827E-002,3.3192410576E-002,Pass,Pass,0.0000000000,0.0000000000,Pass,Pass
 Warmup Convergence Information,PERIMETER_BOT_ZN_3,RunPeriod: RUNPERIOD 1,1.9317361399E-002,1.5753926556E-002,Pass,Pass,0.0000000000,0.0000000000,Pass,Pass
 Warmup Convergence Information,PERIMETER_BOT_ZN_2,RunPeriod: RUNPERIOD 1,4.3707022313E-002,7.5747252204E-002,Pass,Pass,0.0000000000,0.0000000000,Pass,Pass
 Warmup Convergence Information,PERIMETER_BOT_ZN_1,RunPeriod: RUNPERIOD 1,5.1794160665E-002,5.6834493274E-002,Pass,Pass,0.0000000000,0.0000000000,Pass,Pass
 Warmup Convergence Information,PERIMETER_BOT_ZN_4,RunPeriod: RUNPERIOD 1,2.9618488720E-002,2.9137616935E-002,Pass,Pass,0.0000000000,0.0000000000,Pass,Pass
 Warmup Convergence Information,PERIMETER_MID_ZN_3,RunPeriod: RUNPERIOD 1,2.2241672540E-002,1.7693043621E-002,Pass,Pass,0.0000000000,0.0000000000,Pass,Pass
 Warmup Convergence Information,PERIMETER_MID_ZN_2,RunPeriod: RUNPERIOD 1,5.3762032524E-002,9.0220101353E-002,Pass,Pass,0.0000000000,0.0000000000,Pass,Pass
 Warmup Convergence Information,PERIMETER_MID_ZN_1,RunPeriod: RUNPERIOD 1,6.4600072062E-002,7.1837222992E-002,Pass,Pass,0.0000000000,0.0000000000,Pass,Pass
 Warmup Convergence Information,PERIMETER_MID_ZN_4,RunPeriod: RUNPERIOD 1,3.5001314855E-002,3.2653122764E-002,Pass,Pass,0.0000000000,0.0000000000,Pass,Pass
! <Program Control Information:Threads/Parallel Sims>, Threading Supported,Maximum Number of Threads, Env Set Threads (OMP_NUM_THREADS), EP Env Set Threads (EP_OMP_NUM_THREADS), IDF Set Threads, Number of Threads Used (Interior Radiant Exchange), Number Nominal Surfaces, Number Parallel Sims
Program Control:Threads/Parallel Sims, No,1, N/A, N/A, N/A, N/A, N/A, N/A
End of Data
